MODEL 1
REMARK VINA RESULT:      -7.4      0.000      0.000
REMARK  20 active torsions:
REMARK  status: ('A' for Active; 'I' for Inactive)
REMARK    1  A    between atoms: C1_1  and  O1_2 
REMARK    2  A    between atoms: C2_3  and  N2_4 
REMARK       I    between atoms: N2_4  and  C7_13 
REMARK    3  A    between atoms: C3_5  and  O3_6 
REMARK    4  A    between atoms: O3_6  and  C1_46 
REMARK    5  A    between atoms: C4_7  and  O4_8 
REMARK    6  A    between atoms: O4_8  and  C1_19 
REMARK    7  A    between atoms: C5_9  and  C6_11 
REMARK    8  A    between atoms: C6_11  and  O6_12 
REMARK    9  A    between atoms: C2_20  and  O2_21 
REMARK   10  A    between atoms: O2_21  and  C1_33 
REMARK   11  A    between atoms: C3_22  and  O3_23 
REMARK   12  A    between atoms: C4_24  and  O4_25 
REMARK   13  A    between atoms: C5_26  and  C6_28 
REMARK   14  A    between atoms: C6_28  and  O6_29 
REMARK   15  A    between atoms: C2_34  and  O2_35 
REMARK   16  A    between atoms: C3_36  and  O3_37 
REMARK   17  A    between atoms: C4_38  and  O4_39 
REMARK   18  A    between atoms: C2_47  and  O2_48 
REMARK   19  A    between atoms: C3_49  and  O3_50 
REMARK   20  A    between atoms: C4_51  and  O4_52 
ROOT
HETATM    1  C1  NDG A   1     -40.249  35.359  17.550  1.00 18.25     0.282 C 
HETATM    2  C2  NDG A   1     -41.098  36.090  16.489  1.00 16.10     0.171 C 
HETATM    3  C3  NDG A   1     -40.203  36.829  15.485  1.00 17.07     0.183 C 
HETATM    4  C4  NDG A   1     -39.259  37.756  16.254  1.00 17.51     0.187 C 
HETATM    5  C5  NDG A   1     -38.438  36.915  17.248  1.00 19.75     0.180 C 
HETATM    6  O5  NDG A   1     -39.324  36.260  18.180  1.00 18.16    -0.349 OA
ENDROOT
BRANCH   4   7
HETATM    7  O4  NDG A   1     -38.382  38.467  15.349  1.00 18.39    -0.348 OA
BRANCH   7   8
HETATM    8  C1  GAL A   2     -37.855  39.663  15.825  1.00 19.47     0.292 C 
HETATM    9  C2  GAL A   2     -37.191  40.443  14.679  1.00 21.38     0.211 C 
HETATM   10  C3  GAL A   2     -36.669  41.771  15.225  1.00 22.16     0.183 C 
HETATM   11  C4  GAL A   2     -37.837  42.555  15.824  1.00 22.05     0.180 C 
HETATM   12  C5  GAL A   2     -38.478  41.707  16.928  1.00 19.68     0.179 C 
HETATM   13  O5  GAL A   2     -38.931  40.446  16.386  1.00 18.57    -0.348 OA
BRANCH   9  14
HETATM   14  O2  GAL A   2     -36.105  39.687  14.114  1.00 23.81    -0.346 OA
BRANCH  14  15
HETATM   15  C1  FUC A   3     -35.265  39.068  15.052  1.00 20.96     0.292 C 
HETATM   16  C2  FUC A   3     -34.908  37.656  14.584  1.00 21.55     0.204 C 
HETATM   17  C3  FUC A   3     -34.001  37.728  13.355  1.00 21.68     0.183 C 
HETATM   18  C4  FUC A   3     -32.762  38.564  13.676  1.00 23.00     0.178 C 
HETATM   19  C5  FUC A   3     -33.197  39.949  14.151  1.00 22.59     0.152 C 
HETATM   20  C6  FUC A   3     -32.022  40.806  14.578  1.00 21.54     0.042 C 
HETATM   21  O5  FUC A   3     -34.076  39.821  15.296  1.00 22.06    -0.351 OA
BRANCH  16  22
HETATM   22  O2  FUC A   3     -36.090  36.937  14.266  1.00 21.73    -0.388 OA
HETATM   23  H02 FUC A   3     -36.328  36.369  15.002  1.00 21.73     0.210 HD
ENDBRANCH  16  22
BRANCH  17  24
HETATM   24  O3  FUC A   3     -33.612  36.418  12.965  1.00 23.03    -0.390 OA
HETATM   25  H04 FUC A   3     -34.370  35.831  13.015  1.00 23.03     0.210 HD
ENDBRANCH  17  24
BRANCH  18  26
HETATM   26  O4  FUC A   3     -32.010  37.925  14.704  1.00 24.32    -0.390 OA
HETATM   27  H06 FUC A   3     -31.365  38.542  15.059  1.00 24.32     0.210 HD
ENDBRANCH  18  26
ENDBRANCH  14  15
ENDBRANCH   9  14
BRANCH  10  28
HETATM   28  O3  GAL A   2     -36.045  42.525  14.194  1.00 21.48    -0.390 OA
HETATM   29  H03 GAL A   2     -36.703  43.060  13.745  1.00 21.48     0.210 HD
ENDBRANCH  10  28
BRANCH  11  30
HETATM   30  O4  GAL A   2     -38.795  42.820  14.806  1.00 21.68    -0.390 OA
HETATM   31  H05 GAL A   2     -38.518  42.398  13.988  1.00 21.68     0.210 HD
ENDBRANCH  11  30
BRANCH  12  32
HETATM   32  C6  GAL A   2     -39.670  42.375  17.596  1.00 22.77     0.198 C 
BRANCH  32  33
HETATM   33  O6  GAL A   2     -40.862  42.182  16.849  1.00 21.83    -0.398 OA
HETATM   34  H09 GAL A   2     -40.769  42.589  15.985  1.00 21.83     0.209 HD
ENDBRANCH  32  33
ENDBRANCH  12  32
ENDBRANCH   7   8
ENDBRANCH   4   7
BRANCH   5  35
HETATM   35  C6  NDG A   1     -37.473  37.743  18.065  1.00 19.44     0.198 C 
BRANCH  35  36
HETATM   36  O6  NDG A   1     -36.139  37.267  17.923  1.00 22.44    -0.398 OA
HETATM   37  H10 NDG A   1     -35.668  37.382  18.751  1.00 22.44     0.209 HD
ENDBRANCH  35  36
ENDBRANCH   5  35
BRANCH   3  38
HETATM   38  O3  NDG A   1     -41.033  37.609  14.605  1.00 16.70    -0.348 OA
BRANCH  38  39
HETATM   39  C1  FUC A   4     -41.914  38.502  15.231  1.00 17.98     0.292 C 
HETATM   40  C2  FUC A   4     -41.964  39.805  14.424  1.00 18.98     0.204 C 
HETATM   41  C3  FUC A   4     -42.535  39.509  13.031  1.00 18.80     0.183 C 
HETATM   42  C4  FUC A   4     -43.912  38.851  13.166  1.00 19.03     0.178 C 
HETATM   43  C5  FUC A   4     -43.825  37.605  14.063  1.00 17.92     0.152 C 
HETATM   44  O5  FUC A   4     -43.226  37.956  15.333  1.00 17.36    -0.351 OA
HETATM   45  C6  FUC A   4     -45.185  36.996  14.359  1.00 17.47     0.042 C 
BRANCH  40  46
HETATM   46  O2  FUC A   4     -40.656  40.356  14.313  1.00 18.96    -0.388 OA
HETATM   47  H02 FUC A   4     -40.713  41.249  13.968  1.00 18.96     0.210 HD
ENDBRANCH  40  46
BRANCH  41  48
HETATM   48  O3  FUC A   4     -42.654  40.719  12.291  1.00 18.98    -0.390 OA
HETATM   49  H04 FUC A   4     -41.942  40.773  11.649  1.00 18.98     0.210 HD
ENDBRANCH  41  48
BRANCH  42  50
HETATM   50  O4  FUC A   4     -44.817  39.786  13.734  1.00 17.97    -0.390 OA
HETATM   51  H06 FUC A   4     -45.196  39.419  14.536  1.00 17.97     0.210 HD
ENDBRANCH  42  50
ENDBRANCH  38  39
ENDBRANCH   3  38
BRANCH   2  52
HETATM   52  N2  NDG A   1     -41.967  35.156  15.798  1.00 15.82    -0.349 N 
HETATM   53  H04 NDG A   1     -41.714  34.813  14.882  1.00 15.82     0.163 HD
HETATM   54  C7  NDG A   1     -43.097  34.751  16.374  1.00 18.26     0.214 C 
HETATM   55  O7  NDG A   1     -43.479  35.180  17.464  1.00 16.43    -0.274 OA
HETATM   56  C8  NDG A   1     -43.931  33.714  15.642  1.00 17.59     0.117 C 
ENDBRANCH   2  52
BRANCH   1  57
HETATM   57  O1  NDG A   1     -39.534  34.324  16.976  1.00 20.35    -0.369 OA
HETATM   58  H02 NDG A   1     -38.860  34.022  17.589  1.00 20.35     0.212 HD
ENDBRANCH   1  57
TORSDOF 20
BEGIN_RES TYR H  32
REMARK  3 active torsions:
REMARK  status: ('A' for Active; 'I' for Inactive)
REMARK    1  A    between atoms: CA   and  CB  
REMARK    2  A    between atoms: CB   and  CG  
REMARK    3  A    between atoms: CZ   and  OH  
ROOT
ATOM      1  CA  TYR H  32     -36.537  33.688  12.495  1.00 18.29     0.180 C 
ENDROOT
BRANCH   1   2
ATOM      2  CB  TYR H  32     -35.194  32.959  12.519  1.00 19.77     0.073 C 
BRANCH   2   3
ATOM      3  CG  TYR H  32     -34.734  32.493  13.872  1.00 22.87    -0.056 A 
ATOM      4  CD1 TYR H  32     -34.898  31.169  14.268  1.00 20.12     0.010 A 
ATOM      5  CE1 TYR H  32     -34.440  30.729  15.513  1.00 23.09     0.037 A 
ATOM      6  CZ  TYR H  32     -33.813  31.626  16.370  1.00 23.55     0.065 A 
ATOM      7  CE2 TYR H  32     -33.644  32.949  15.995  1.00 23.27     0.037 A 
ATOM      8  CD2 TYR H  32     -34.104  33.376  14.753  1.00 21.76     0.010 A 
BRANCH   6   9
ATOM      9  OH  TYR H  32     -33.345  31.195  17.597  1.00 24.63    -0.361 OA
ATOM     10  H09 TYR H  32     -33.777  30.371  17.834  1.00 24.63     0.217 HD
ENDBRANCH   6   9
ENDBRANCH   2   3
ENDBRANCH   1   2
END_RES TYR H  32
BEGIN_RES TYR H  33
REMARK  3 active torsions:
REMARK  status: ('A' for Active; 'I' for Inactive)
REMARK    4  A    between atoms: CA   and  CB  
REMARK    5  A    between atoms: CB   and  CG  
REMARK    6  A    between atoms: CZ   and  OH  
ROOT
ATOM     11  CA  TYR H  33     -35.954  36.540  10.090  1.00 16.40     0.180 C 
ENDROOT
BRANCH  11  12
ATOM     12  CB  TYR H  33     -35.592  37.970  10.478  1.00 15.75     0.073 C 
BRANCH  12  13
ATOM     13  CG  TYR H  33     -36.767  38.871  10.752  1.00 19.01    -0.056 A 
ATOM     14  CD1 TYR H  33     -37.899  38.400  11.417  1.00 16.84     0.010 A 
ATOM     15  CE1 TYR H  33     -38.975  39.252  11.693  1.00 19.32     0.037 A 
ATOM     16  CZ  TYR H  33     -38.914  40.578  11.304  1.00 19.88     0.065 A 
ATOM     17  CE2 TYR H  33     -37.798  41.067  10.642  1.00 21.27     0.037 A 
ATOM     18  CD2 TYR H  33     -36.735  40.213  10.368  1.00 18.42     0.010 A 
BRANCH  16  19
ATOM     19  OH  TYR H  33     -39.959  41.428  11.562  1.00 21.96    -0.361 OA
ATOM     20  H08 TYR H  33     -40.380  41.176  12.387  1.00 21.96     0.217 HD
ENDBRANCH  16  19
ENDBRANCH  12  13
ENDBRANCH  11  12
END_RES TYR H  33
BEGIN_RES TYR H  50
REMARK  3 active torsions:
REMARK  status: ('A' for Active; 'I' for Inactive)
REMARK    7  A    between atoms: CA   and  CB  
REMARK    8  A    between atoms: CB   and  CG  
REMARK    9  A    between atoms: CZ   and  OH  
ROOT
ATOM     21  CA  TYR H  50     -33.769  40.088   4.603  1.00 18.73     0.180 C 
ENDROOT
BRANCH  21  22
ATOM     22  CB  TYR H  50     -33.504  41.014   5.805  1.00 19.53     0.073 C 
BRANCH  22  23
ATOM     23  CG  TYR H  50     -34.594  42.007   6.174  1.00 22.78    -0.056 A 
ATOM     24  CD1 TYR H  50     -35.574  41.695   7.124  1.00 23.54     0.010 A 
ATOM     25  CE1 TYR H  50     -36.547  42.621   7.487  1.00 23.32     0.037 A 
ATOM     26  CZ  TYR H  50     -36.551  43.876   6.904  1.00 25.64     0.065 A 
ATOM     27  CE2 TYR H  50     -35.592  44.213   5.962  1.00 25.81     0.037 A 
ATOM     28  CD2 TYR H  50     -34.621  43.276   5.601  1.00 22.93     0.010 A 
BRANCH  26  29
ATOM     29  OH  TYR H  50     -37.519  44.794   7.246  1.00 26.65    -0.361 OA
ATOM     30  H09 TYR H  50     -38.193  44.819   6.564  1.00 26.65     0.217 HD
ENDBRANCH  26  29
ENDBRANCH  22  23
ENDBRANCH  21  22
END_RES TYR H  50
BEGIN_RES TRP H 105
REMARK  2 active torsions:
REMARK  status: ('A' for Active; 'I' for Inactive)
REMARK   10  A    between atoms: CA   and  CB  
REMARK   11  A    between atoms: CB   and  CG  
ROOT
ATOM     31  CA  TRP H 105     -27.730  39.492  12.437  1.00 18.07     0.181 C 
ENDROOT
BRANCH  31  32
ATOM     32  CB  TRP H 105     -27.228  40.633  11.544  1.00 18.23     0.075 C 
BRANCH  32  33
ATOM     33  CG  TRP H 105     -28.256  41.682  11.226  1.00 19.04    -0.028 A 
ATOM     34  CD1 TRP H 105     -28.722  42.018   9.989  1.00 17.14     0.096 A 
ATOM     35  NE1 TRP H 105     -29.634  43.042  10.088  1.00 18.41    -0.365 N 
ATOM     36  CE2 TRP H 105     -29.776  43.383  11.406  1.00 17.66     0.042 A 
ATOM     37  H07 TRP H 105     -30.121  43.471   9.314  1.00 18.41     0.165 HD
ATOM     38  CZ2 TRP H 105     -30.585  44.357  12.003  1.00 18.85     0.030 A 
ATOM     39  CD2 TRP H 105     -28.920  42.545  12.155  1.00 18.24    -0.002 A 
ATOM     40  CH2 TRP H 105     -30.524  44.481  13.367  1.00 17.37     0.002 A 
ATOM     41  CZ3 TRP H 105     -29.680  43.661  14.141  1.00 20.81     0.001 A 
ATOM     42  CE3 TRP H 105     -28.876  42.692  13.547  1.00 20.27     0.014 A 
ENDBRANCH  32  33
ENDBRANCH  31  32
END_RES TRP H 105
ENDMDL
MODEL 2
REMARK VINA RESULT:      -7.4      2.218      6.436
REMARK  20 active torsions:
REMARK  status: ('A' for Active; 'I' for Inactive)
REMARK    1  A    between atoms: C1_1  and  O1_2 
REMARK    2  A    between atoms: C2_3  and  N2_4 
REMARK       I    between atoms: N2_4  and  C7_13 
REMARK    3  A    between atoms: C3_5  and  O3_6 
REMARK    4  A    between atoms: O3_6  and  C1_46 
REMARK    5  A    between atoms: C4_7  and  O4_8 
REMARK    6  A    between atoms: O4_8  and  C1_19 
REMARK    7  A    between atoms: C5_9  and  C6_11 
REMARK    8  A    between atoms: C6_11  and  O6_12 
REMARK    9  A    between atoms: C2_20  and  O2_21 
REMARK   10  A    between atoms: O2_21  and  C1_33 
REMARK   11  A    between atoms: C3_22  and  O3_23 
REMARK   12  A    between atoms: C4_24  and  O4_25 
REMARK   13  A    between atoms: C5_26  and  C6_28 
REMARK   14  A    between atoms: C6_28  and  O6_29 
REMARK   15  A    between atoms: C2_34  and  O2_35 
REMARK   16  A    between atoms: C3_36  and  O3_37 
REMARK   17  A    between atoms: C4_38  and  O4_39 
REMARK   18  A    between atoms: C2_47  and  O2_48 
REMARK   19  A    between atoms: C3_49  and  O3_50 
REMARK   20  A    between atoms: C4_51  and  O4_52 
ROOT
HETATM    1  C1  NDG A   1     -36.581  44.527  12.903  1.00 18.25     0.282 C 
HETATM    2  C2  NDG A   1     -35.746  43.256  13.165  1.00 16.10     0.171 C 
HETATM    3  C3  NDG A   1     -36.570  42.203  13.916  1.00 17.07     0.183 C 
HETATM    4  C4  NDG A   1     -37.134  42.834  15.192  1.00 17.51     0.187 C 
HETATM    5  C5  NDG A   1     -37.980  44.061  14.806  1.00 19.75     0.180 C 
HETATM    6  O5  NDG A   1     -37.154  45.027  14.122  1.00 18.16    -0.349 OA
ENDROOT
BRANCH   4   7
HETATM    7  O4  NDG A   1     -37.933  41.881  15.930  1.00 18.39    -0.348 OA
BRANCH   7   8
HETATM    8  C1  GAL A   2     -37.718  41.842  17.304  1.00 19.47     0.292 C 
HETATM    9  C2  GAL A   2     -37.227  40.447  17.724  1.00 21.38     0.211 C 
HETATM   10  C3  GAL A   2     -36.953  40.453  19.227  1.00 22.16     0.183 C 
HETATM   11  C4  GAL A   2     -35.906  41.524  19.536  1.00 22.05     0.180 C 
HETATM   12  C5  GAL A   2     -36.439  42.879  19.057  1.00 19.68     0.179 C 
HETATM   13  O5  GAL A   2     -36.719  42.829  17.639  1.00 18.57    -0.348 OA
BRANCH   9  14
HETATM   14  O2  GAL A   2     -38.214  39.448  17.412  1.00 23.81    -0.346 OA
BRANCH  14  15
HETATM   15  C1  FUC A   3     -37.983  38.738  16.224  1.00 20.96     0.292 C 
HETATM   16  C2  FUC A   3     -37.856  37.243  16.523  1.00 21.55     0.204 C 
HETATM   17  C3  FUC A   3     -39.211  36.682  16.961  1.00 21.68     0.183 C 
HETATM   18  C4  FUC A   3     -40.260  36.973  15.889  1.00 23.00     0.178 C 
HETATM   19  C5  FUC A   3     -40.317  38.478  15.633  1.00 22.59     0.152 C 
HETATM   20  C6  FUC A   3     -41.273  38.836  14.513  1.00 21.54     0.042 C 
HETATM   21  O5  FUC A   3     -39.005  38.961  15.251  1.00 22.06    -0.351 OA
BRANCH  16  22
HETATM   22  O2  FUC A   3     -36.897  37.033  17.548  1.00 21.73    -0.388 OA
HETATM   23  H02 FUC A   3     -36.077  36.719  17.159  1.00 21.73     0.210 HD
ENDBRANCH  16  22
BRANCH  17  24
HETATM   24  O3  FUC A   3     -39.107  35.281  17.168  1.00 23.03    -0.390 OA
HETATM   25  H04 FUC A   3     -39.975  34.880  17.082  1.00 23.03     0.210 HD
ENDBRANCH  17  24
BRANCH  18  26
HETATM   26  O4  FUC A   3     -39.909  36.301  14.683  1.00 24.32    -0.390 OA
HETATM   27  H06 FUC A   3     -39.915  36.926  13.954  1.00 24.32     0.210 HD
ENDBRANCH  18  26
ENDBRANCH  14  15
ENDBRANCH   9  14
BRANCH  10  28
HETATM   28  O3  GAL A   2     -36.496  39.177  19.657  1.00 21.48    -0.390 OA
HETATM   29  H03 GAL A   2     -36.344  38.617  18.892  1.00 21.48     0.210 HD
ENDBRANCH  10  28
BRANCH  11  30
HETATM   30  O4  GAL A   2     -34.700  41.212  18.848  1.00 21.68    -0.390 OA
HETATM   31  H05 GAL A   2     -34.908  40.806  18.003  1.00 21.68     0.210 HD
ENDBRANCH  11  30
BRANCH  12  32
HETATM   32  C6  GAL A   2     -35.476  44.032  19.295  1.00 22.77     0.198 C 
BRANCH  32  33
HETATM   33  O6  GAL A   2     -35.004  44.578  18.072  1.00 21.83    -0.398 OA
HETATM   34  H09 GAL A   2     -34.909  43.877  17.423  1.00 21.83     0.209 HD
ENDBRANCH  32  33
ENDBRANCH  12  32
ENDBRANCH   7   8
ENDBRANCH   4   7
BRANCH   5  35
HETATM   35  C6  NDG A   1     -38.580  44.763  16.003  1.00 19.44     0.198 C 
BRANCH  35  36
HETATM   36  O6  NDG A   1     -37.582  45.455  16.746  1.00 22.44    -0.398 OA
HETATM   37  H10 NDG A   1     -37.468  45.034  17.600  1.00 22.44     0.209 HD
ENDBRANCH  35  36
ENDBRANCH   5  35
BRANCH   3  38
HETATM   38  O3  NDG A   1     -35.713  41.100  14.263  1.00 16.70    -0.348 OA
BRANCH  38  39
HETATM   39  C1  FUC A   4     -34.341  41.310  14.073  1.00 17.98     0.292 C 
HETATM   40  C2  FUC A   4     -33.632  41.253  15.432  1.00 18.98     0.204 C 
HETATM   41  C3  FUC A   4     -33.795  39.845  16.020  1.00 18.80     0.183 C 
HETATM   42  C4  FUC A   4     -33.255  38.805  15.033  1.00 19.03     0.178 C 
HETATM   43  C5  FUC A   4     -33.928  38.970  13.660  1.00 17.92     0.152 C 
HETATM   44  O5  FUC A   4     -33.778  40.334  13.201  1.00 17.36    -0.351 OA
HETATM   45  C6  FUC A   4     -33.324  38.068  12.597  1.00 17.47     0.042 C 
BRANCH  40  46
HETATM   46  O2  FUC A   4     -34.191  42.222  16.311  1.00 18.96    -0.388 OA
HETATM   47  H02 FUC A   4     -34.635  42.901  15.799  1.00 18.96     0.210 HD
ENDBRANCH  40  46
BRANCH  41  48
HETATM   48  O3  FUC A   4     -33.085  39.751  17.250  1.00 18.98    -0.390 OA
HETATM   49  H04 FUC A   4     -33.580  39.206  17.866  1.00 18.98     0.210 HD
ENDBRANCH  41  48
BRANCH  42  50
HETATM   50  O4  FUC A   4     -31.852  38.979  14.901  1.00 17.97    -0.390 OA
HETATM   51  H06 FUC A   4     -31.557  38.591  14.074  1.00 17.97     0.210 HD
ENDBRANCH  42  50
ENDBRANCH  38  39
ENDBRANCH   3  38
BRANCH   2  52
HETATM   52  N2  NDG A   1     -35.245  42.709  11.917  1.00 15.82    -0.349 N 
HETATM   53  H04 NDG A   1     -35.565  41.807  11.596  1.00 15.82     0.163 HD
HETATM   54  C7  NDG A   1     -34.363  43.400  11.198  1.00 18.26     0.214 C 
HETATM   55  O7  NDG A   1     -33.898  44.478  11.570  1.00 16.43    -0.274 OA
HETATM   56  C8  NDG A   1     -33.929  42.817   9.863  1.00 17.59     0.117 C 
ENDBRANCH   2  52
BRANCH   1  57
HETATM   57  O1  NDG A   1     -37.606  44.264  12.012  1.00 20.35    -0.369 OA
HETATM   58  H02 NDG A   1     -37.241  43.895  11.204  1.00 20.35     0.212 HD
ENDBRANCH   1  57
TORSDOF 20
BEGIN_RES TYR H  32
REMARK  3 active torsions:
REMARK  status: ('A' for Active; 'I' for Inactive)
REMARK    1  A    between atoms: CA   and  CB  
REMARK    2  A    between atoms: CB   and  CG  
REMARK    3  A    between atoms: CZ   and  OH  
ROOT
ATOM      1  CA  TYR H  32     -36.537  33.688  12.495  1.00 18.29     0.180 C 
ENDROOT
BRANCH   1   2
ATOM      2  CB  TYR H  32     -35.194  32.959  12.519  1.00 19.77     0.073 C 
BRANCH   2   3
ATOM      3  CG  TYR H  32     -34.732  32.496  13.872  1.00 22.87    -0.056 A 
ATOM      4  CD1 TYR H  32     -34.887  31.172  14.269  1.00 20.12     0.010 A 
ATOM      5  CE1 TYR H  32     -34.427  30.735  15.515  1.00 23.09     0.037 A 
ATOM      6  CZ  TYR H  32     -33.808  31.637  16.371  1.00 23.55     0.065 A 
ATOM      7  CE2 TYR H  32     -33.648  32.961  15.996  1.00 23.27     0.037 A 
ATOM      8  CD2 TYR H  32     -34.109  33.384  14.754  1.00 21.76     0.010 A 
BRANCH   6   9
ATOM      9  OH  TYR H  32     -33.337  31.210  17.599  1.00 24.63    -0.361 OA
ATOM     10  H09 TYR H  32     -32.669  31.822  17.917  1.00 24.63     0.217 HD
ENDBRANCH   6   9
ENDBRANCH   2   3
ENDBRANCH   1   2
END_RES TYR H  32
BEGIN_RES TYR H  33
REMARK  3 active torsions:
REMARK  status: ('A' for Active; 'I' for Inactive)
REMARK    4  A    between atoms: CA   and  CB  
REMARK    5  A    between atoms: CB   and  CG  
REMARK    6  A    between atoms: CZ   and  OH  
ROOT
ATOM     11  CA  TYR H  33     -35.954  36.540  10.090  1.00 16.40     0.180 C 
ENDROOT
BRANCH  11  12
ATOM     12  CB  TYR H  33     -35.592  37.970  10.478  1.00 15.75     0.073 C 
BRANCH  12  13
ATOM     13  CG  TYR H  33     -36.767  38.889  10.686  1.00 19.01    -0.056 A 
ATOM     14  CD1 TYR H  33     -37.811  38.543  11.543  1.00 16.84     0.010 A 
ATOM     15  CE1 TYR H  33     -38.886  39.415  11.754  1.00 19.32     0.037 A 
ATOM     16  CZ  TYR H  33     -38.910  40.637  11.105  1.00 19.88     0.065 A 
ATOM     17  CE2 TYR H  33     -37.882  41.001  10.249  1.00 21.27     0.037 A 
ATOM     18  CD2 TYR H  33     -36.820  40.126  10.043  1.00 18.42     0.010 A 
BRANCH  16  19
ATOM     19  OH  TYR H  33     -39.955  41.505  11.295  1.00 21.96    -0.361 OA
ATOM     20  H08 TYR H  33     -39.663  42.247  11.830  1.00 21.96     0.217 HD
ENDBRANCH  16  19
ENDBRANCH  12  13
ENDBRANCH  11  12
END_RES TYR H  33
BEGIN_RES TYR H  50
REMARK  3 active torsions:
REMARK  status: ('A' for Active; 'I' for Inactive)
REMARK    7  A    between atoms: CA   and  CB  
REMARK    8  A    between atoms: CB   and  CG  
REMARK    9  A    between atoms: CZ   and  OH  
ROOT
ATOM     21  CA  TYR H  50     -33.769  40.088   4.603  1.00 18.73     0.180 C 
ENDROOT
BRANCH  21  22
ATOM     22  CB  TYR H  50     -33.504  41.014   5.805  1.00 19.53     0.073 C 
BRANCH  22  23
ATOM     23  CG  TYR H  50     -34.555  42.066   6.120  1.00 22.78    -0.056 A 
ATOM     24  CD1 TYR H  50     -35.694  41.756   6.874  1.00 23.54     0.010 A 
ATOM     25  CE1 TYR H  50     -36.634  42.731   7.193  1.00 23.32     0.037 A 
ATOM     26  CZ  TYR H  50     -36.446  44.031   6.762  1.00 25.64     0.065 A 
ATOM     27  CE2 TYR H  50     -35.328  44.367   6.017  1.00 25.81     0.037 A 
ATOM     28  CD2 TYR H  50     -34.391  43.382   5.698  1.00 22.93     0.010 A 
BRANCH  26  29
ATOM     29  OH  TYR H  50     -37.379  44.999   7.061  1.00 26.65    -0.361 OA
ATOM     30  H09 TYR H  50     -37.159  45.408   7.902  1.00 26.65     0.217 HD
ENDBRANCH  26  29
ENDBRANCH  22  23
ENDBRANCH  21  22
END_RES TYR H  50
BEGIN_RES TRP H 105
REMARK  2 active torsions:
REMARK  status: ('A' for Active; 'I' for Inactive)
REMARK   10  A    between atoms: CA   and  CB  
REMARK   11  A    between atoms: CB   and  CG  
ROOT
ATOM     31  CA  TRP H 105     -27.730  39.492  12.437  1.00 18.07     0.181 C 
ENDROOT
BRANCH  31  32
ATOM     32  CB  TRP H 105     -27.228  40.633  11.544  1.00 18.23     0.075 C 
BRANCH  32  33
ATOM     33  CG  TRP H 105     -28.254  41.687  11.234  1.00 19.04    -0.028 A 
ATOM     34  CD1 TRP H 105     -28.716  42.035   9.999  1.00 17.14     0.096 A 
ATOM     35  NE1 TRP H 105     -29.627  43.060  10.105  1.00 18.41    -0.365 N 
ATOM     36  CE2 TRP H 105     -29.771  43.389  11.426  1.00 17.66     0.042 A 
ATOM     37  H07 TRP H 105     -30.111  43.498   9.334  1.00 18.41     0.165 HD
ATOM     38  CZ2 TRP H 105     -30.579  44.359  12.031  1.00 18.85     0.030 A 
ATOM     39  CD2 TRP H 105     -28.918  42.542  12.169  1.00 18.24    -0.002 A 
ATOM     40  CH2 TRP H 105     -30.521  44.470  13.396  1.00 17.37     0.002 A 
ATOM     41  CZ3 TRP H 105     -29.680  43.641  14.164  1.00 20.81     0.001 A 
ATOM     42  CE3 TRP H 105     -28.876  42.676  13.562  1.00 20.27     0.014 A 
ENDBRANCH  32  33
ENDBRANCH  31  32
END_RES TRP H 105
ENDMDL
MODEL 3
REMARK VINA RESULT:      -7.1      2.679      6.334
REMARK  20 active torsions:
REMARK  status: ('A' for Active; 'I' for Inactive)
REMARK    1  A    between atoms: C1_1  and  O1_2 
REMARK    2  A    between atoms: C2_3  and  N2_4 
REMARK       I    between atoms: N2_4  and  C7_13 
REMARK    3  A    between atoms: C3_5  and  O3_6 
REMARK    4  A    between atoms: O3_6  and  C1_46 
REMARK    5  A    between atoms: C4_7  and  O4_8 
REMARK    6  A    between atoms: O4_8  and  C1_19 
REMARK    7  A    between atoms: C5_9  and  C6_11 
REMARK    8  A    between atoms: C6_11  and  O6_12 
REMARK    9  A    between atoms: C2_20  and  O2_21 
REMARK   10  A    between atoms: O2_21  and  C1_33 
REMARK   11  A    between atoms: C3_22  and  O3_23 
REMARK   12  A    between atoms: C4_24  and  O4_25 
REMARK   13  A    between atoms: C5_26  and  C6_28 
REMARK   14  A    between atoms: C6_28  and  O6_29 
REMARK   15  A    between atoms: C2_34  and  O2_35 
REMARK   16  A    between atoms: C3_36  and  O3_37 
REMARK   17  A    between atoms: C4_38  and  O4_39 
REMARK   18  A    between atoms: C2_47  and  O2_48 
REMARK   19  A    between atoms: C3_49  and  O3_50 
REMARK   20  A    between atoms: C4_51  and  O4_52 
ROOT
HETATM    1  C1  NDG A   1     -38.994  39.458  15.801  1.00 18.25     0.282 C 
HETATM    2  C2  NDG A   1     -37.560  39.129  15.335  1.00 16.10     0.171 C 
HETATM    3  C3  NDG A   1     -36.664  40.372  15.399  1.00 17.07     0.183 C 
HETATM    4  C4  NDG A   1     -37.322  41.498  14.598  1.00 17.51     0.187 C 
HETATM    5  C5  NDG A   1     -38.722  41.766  15.178  1.00 19.75     0.180 C 
HETATM    6  O5  NDG A   1     -39.529  40.575  15.074  1.00 18.16    -0.349 OA
ENDROOT
BRANCH   4   7
HETATM    7  O4  NDG A   1     -36.518  42.700  14.642  1.00 18.39    -0.348 OA
BRANCH   7   8
HETATM    8  C1  GAL A   2     -36.541  43.489  13.496  1.00 19.47     0.292 C 
HETATM    9  C2  GAL A   2     -36.181  44.942  13.847  1.00 21.38     0.211 C 
HETATM   10  C3  GAL A   2     -36.166  45.769  12.562  1.00 22.16     0.183 C 
HETATM   11  C4  GAL A   2     -35.147  45.165  11.595  1.00 22.05     0.180 C 
HETATM   12  C5  GAL A   2     -35.541  43.709  11.321  1.00 19.68     0.179 C 
HETATM   13  O5  GAL A   2     -35.577  42.963  12.558  1.00 18.57    -0.348 OA
BRANCH   9  14
HETATM   14  O2  GAL A   2     -37.138  45.492  14.770  1.00 23.81    -0.346 OA
BRANCH  14  15
HETATM   15  C1  FUC A   3     -36.587  46.270  15.799  1.00 20.96     0.292 C 
HETATM   16  C2  FUC A   3     -37.688  47.070  16.498  1.00 21.55     0.204 C 
HETATM   17  C3  FUC A   3     -38.602  46.124  17.280  1.00 21.68     0.183 C 
HETATM   18  C4  FUC A   3     -37.772  45.298  18.261  1.00 23.00     0.178 C 
HETATM   19  C5  FUC A   3     -36.687  44.544  17.495  1.00 22.59     0.152 C 
HETATM   20  C6  FUC A   3     -35.763  43.773  18.416  1.00 21.54     0.042 C 
HETATM   21  O5  FUC A   3     -35.870  45.482  16.752  1.00 22.06    -0.351 OA
BRANCH  16  22
HETATM   22  O2  FUC A   3     -38.449  47.788  15.539  1.00 21.73    -0.388 OA
HETATM   23  H02 FUC A   3     -38.261  48.726  15.619  1.00 21.73     0.210 HD
ENDBRANCH  16  22
BRANCH  17  24
HETATM   24  O3  FUC A   3     -39.580  46.874  17.986  1.00 23.03    -0.390 OA
HETATM   25  H04 FUC A   3     -39.420  47.812  17.857  1.00 23.03     0.210 HD
ENDBRANCH  17  24
BRANCH  18  26
HETATM   26  O4  FUC A   3     -37.164  46.162  19.217  1.00 24.32    -0.390 OA
HETATM   27  H06 FUC A   3     -36.639  45.643  19.830  1.00 24.32     0.210 HD
ENDBRANCH  18  26
ENDBRANCH  14  15
ENDBRANCH   9  14
BRANCH  10  28
HETATM   28  O3  GAL A   2     -35.838  47.123  12.844  1.00 21.48    -0.390 OA
HETATM   29  H03 GAL A   2     -35.989  47.303  13.774  1.00 21.48     0.210 HD
ENDBRANCH  10  28
BRANCH  11  30
HETATM   30  O4  GAL A   2     -33.855  45.210  12.188  1.00 21.68    -0.390 OA
HETATM   31  H05 GAL A   2     -33.377  44.404  11.976  1.00 21.68     0.210 HD
ENDBRANCH  11  30
BRANCH  12  32
HETATM   32  C6  GAL A   2     -34.589  42.988  10.378  1.00 22.77     0.198 C 
BRANCH  32  33
HETATM   33  O6  GAL A   2     -33.411  42.564  11.049  1.00 21.83    -0.398 OA
HETATM   34  H09 GAL A   2     -33.557  41.698  11.436  1.00 21.83     0.209 HD
ENDBRANCH  32  33
ENDBRANCH  12  32
ENDBRANCH   7   8
ENDBRANCH   4   7
BRANCH   5  35
HETATM   35  C6  NDG A   1     -39.461  42.865  14.448  1.00 19.44     0.198 C 
BRANCH  35  36
HETATM   36  O6  NDG A   1     -40.680  42.382  13.893  1.00 22.44    -0.398 OA
HETATM   37  H10 NDG A   1     -40.537  42.127  12.979  1.00 22.44     0.209 HD
ENDBRANCH  35  36
ENDBRANCH   5  35
BRANCH   3  38
HETATM   38  O3  NDG A   1     -35.383  40.055  14.823  1.00 16.70    -0.348 OA
BRANCH  38  39
HETATM   39  C1  FUC A   4     -34.336  39.863  15.733  1.00 17.98     0.292 C 
HETATM   40  C2  FUC A   4     -33.223  39.055  15.054  1.00 18.98     0.204 C 
HETATM   41  C3  FUC A   4     -32.659  39.870  13.882  1.00 18.80     0.183 C 
HETATM   42  C4  FUC A   4     -32.170  41.232  14.386  1.00 19.03     0.178 C 
HETATM   43  C5  FUC A   4     -33.295  41.957  15.144  1.00 17.92     0.152 C 
HETATM   44  O5  FUC A   4     -33.809  41.104  16.193  1.00 17.36    -0.351 OA
HETATM   45  C6  FUC A   4     -32.827  43.246  15.799  1.00 17.47     0.042 C 
BRANCH  40  46
HETATM   46  O2  FUC A   4     -33.741  37.815  14.587  1.00 18.96    -0.388 OA
HETATM   47  H02 FUC A   4     -33.258  37.092  14.993  1.00 18.96     0.210 HD
ENDBRANCH  40  46
BRANCH  41  48
HETATM   48  O3  FUC A   4     -31.577  39.167  13.281  1.00 18.98    -0.390 OA
HETATM   49  H04 FUC A   4     -31.167  38.593  13.933  1.00 18.98     0.210 HD
ENDBRANCH  41  48
BRANCH  42  50
HETATM   50  O4  FUC A   4     -31.062  41.034  15.252  1.00 17.97    -0.390 OA
HETATM   51  H06 FUC A   4     -30.427  41.743  15.127  1.00 17.97     0.210 HD
ENDBRANCH  42  50
ENDBRANCH  38  39
ENDBRANCH   3  38
BRANCH   2  52
HETATM   52  N2  NDG A   1     -36.997  38.057  16.134  1.00 15.82    -0.349 N 
HETATM   53  H04 NDG A   1     -36.925  38.158  17.136  1.00 15.82     0.163 HD
HETATM   54  C7  NDG A   1     -36.576  36.941  15.544  1.00 18.26     0.214 C 
HETATM   55  O7  NDG A   1     -36.589  36.787  14.322  1.00 16.43    -0.274 OA
HETATM   56  C8  NDG A   1     -36.066  35.820  16.435  1.00 17.59     0.117 C 
ENDBRANCH   2  52
BRANCH   1  57
HETATM   57  O1  NDG A   1     -39.011  39.763  17.150  1.00 20.35    -0.369 OA
HETATM   58  H02 NDG A   1     -38.473  39.129  17.629  1.00 20.35     0.212 HD
ENDBRANCH   1  57
TORSDOF 20
BEGIN_RES TYR H  32
REMARK  3 active torsions:
REMARK  status: ('A' for Active; 'I' for Inactive)
REMARK    1  A    between atoms: CA   and  CB  
REMARK    2  A    between atoms: CB   and  CG  
REMARK    3  A    between atoms: CZ   and  OH  
ROOT
ATOM      1  CA  TYR H  32     -36.537  33.688  12.495  1.00 18.29     0.180 C 
ENDROOT
BRANCH   1   2
ATOM      2  CB  TYR H  32     -35.194  32.959  12.519  1.00 19.77     0.073 C 
BRANCH   2   3
ATOM      3  CG  TYR H  32     -34.733  32.495  13.872  1.00 22.87    -0.056 A 
ATOM      4  CD1 TYR H  32     -34.916  31.177  14.279  1.00 20.12     0.010 A 
ATOM      5  CE1 TYR H  32     -34.457  30.738  15.524  1.00 23.09     0.037 A 
ATOM      6  CZ  TYR H  32     -33.810  31.630  16.370  1.00 23.55     0.065 A 
ATOM      7  CE2 TYR H  32     -33.622  32.948  15.985  1.00 23.27     0.037 A 
ATOM      8  CD2 TYR H  32     -34.083  33.374  14.743  1.00 21.76     0.010 A 
BRANCH   6   9
ATOM      9  OH  TYR H  32     -33.341  31.200  17.597  1.00 24.63    -0.361 OA
ATOM     10  H09 TYR H  32     -32.740  30.462  17.470  1.00 24.63     0.217 HD
ENDBRANCH   6   9
ENDBRANCH   2   3
ENDBRANCH   1   2
END_RES TYR H  32
BEGIN_RES TYR H  33
REMARK  3 active torsions:
REMARK  status: ('A' for Active; 'I' for Inactive)
REMARK    4  A    between atoms: CA   and  CB  
REMARK    5  A    between atoms: CB   and  CG  
REMARK    6  A    between atoms: CZ   and  OH  
ROOT
ATOM     11  CA  TYR H  33     -35.954  36.540  10.090  1.00 16.40     0.180 C 
ENDROOT
BRANCH  11  12
ATOM     12  CB  TYR H  33     -35.592  37.970  10.478  1.00 15.75     0.073 C 
BRANCH  12  13
ATOM     13  CG  TYR H  33     -36.767  38.887  10.693  1.00 19.01    -0.056 A 
ATOM     14  CD1 TYR H  33     -37.810  38.536  11.550  1.00 16.84     0.010 A 
ATOM     15  CE1 TYR H  33     -38.885  39.406  11.767  1.00 19.32     0.037 A 
ATOM     16  CZ  TYR H  33     -38.911  40.632  11.127  1.00 19.88     0.065 A 
ATOM     17  CE2 TYR H  33     -37.884  41.001  10.271  1.00 21.27     0.037 A 
ATOM     18  CD2 TYR H  33     -36.822  40.128  10.058  1.00 18.42     0.010 A 
BRANCH  16  19
ATOM     19  OH  TYR H  33     -39.956  41.498  11.323  1.00 21.96    -0.361 OA
ATOM     20  H08 TYR H  33     -39.692  42.184  11.940  1.00 21.96     0.217 HD
ENDBRANCH  16  19
ENDBRANCH  12  13
ENDBRANCH  11  12
END_RES TYR H  33
BEGIN_RES TYR H  50
REMARK  3 active torsions:
REMARK  status: ('A' for Active; 'I' for Inactive)
REMARK    7  A    between atoms: CA   and  CB  
REMARK    8  A    between atoms: CB   and  CG  
REMARK    9  A    between atoms: CZ   and  OH  
ROOT
ATOM     21  CA  TYR H  50     -33.769  40.088   4.603  1.00 18.73     0.180 C 
ENDROOT
BRANCH  21  22
ATOM     22  CB  TYR H  50     -33.504  41.014   5.805  1.00 19.53     0.073 C 
BRANCH  22  23
ATOM     23  CG  TYR H  50     -34.551  42.072   6.114  1.00 22.78    -0.056 A 
ATOM     24  CD1 TYR H  50     -35.644  41.796   6.944  1.00 23.54     0.010 A 
ATOM     25  CE1 TYR H  50     -36.579  42.778   7.256  1.00 23.32     0.037 A 
ATOM     26  CZ  TYR H  50     -36.431  44.053   6.742  1.00 25.64     0.065 A 
ATOM     27  CE2 TYR H  50     -35.357  44.356   5.920  1.00 25.81     0.037 A 
ATOM     28  CD2 TYR H  50     -34.425  43.363   5.609  1.00 22.93     0.010 A 
BRANCH  26  29
ATOM     29  OH  TYR H  50     -37.359  45.028   7.033  1.00 26.65    -0.361 OA
ATOM     30  H09 TYR H  50     -37.239  45.324   7.939  1.00 26.65     0.217 HD
ENDBRANCH  26  29
ENDBRANCH  22  23
ENDBRANCH  21  22
END_RES TYR H  50
BEGIN_RES TRP H 105
REMARK  2 active torsions:
REMARK  status: ('A' for Active; 'I' for Inactive)
REMARK   10  A    between atoms: CA   and  CB  
REMARK   11  A    between atoms: CB   and  CG  
ROOT
ATOM     31  CA  TRP H 105     -27.730  39.492  12.437  1.00 18.07     0.181 C 
ENDROOT
BRANCH  31  32
ATOM     32  CB  TRP H 105     -27.228  40.633  11.544  1.00 18.23     0.075 C 
BRANCH  32  33
ATOM     33  CG  TRP H 105     -28.259  41.675  11.216  1.00 19.04    -0.028 A 
ATOM     34  CD1 TRP H 105     -28.779  41.949   9.985  1.00 17.14     0.096 A 
ATOM     35  NE1 TRP H 105     -29.676  42.988  10.069  1.00 18.41    -0.365 N 
ATOM     36  CE2 TRP H 105     -29.752  43.403  11.371  1.00 17.66     0.042 A 
ATOM     37  H07 TRP H 105     -30.194  43.381   9.296  1.00 18.41     0.165 HD
ATOM     38  CZ2 TRP H 105     -30.522  44.419  11.950  1.00 18.85     0.030 A 
ATOM     39  CD2 TRP H 105     -28.871  42.596  12.125  1.00 18.24    -0.002 A 
ATOM     40  CH2 TRP H 105     -30.397  44.617  13.301  1.00 17.37     0.002 A 
ATOM     41  CZ3 TRP H 105     -29.525  43.830  14.080  1.00 20.81     0.001 A 
ATOM     42  CE3 TRP H 105     -28.760  42.820  13.503  1.00 20.27     0.014 A 
ENDBRANCH  32  33
ENDBRANCH  31  32
END_RES TRP H 105
ENDMDL
MODEL 4
REMARK VINA RESULT:      -7.1      1.627      6.702
REMARK  20 active torsions:
REMARK  status: ('A' for Active; 'I' for Inactive)
REMARK    1  A    between atoms: C1_1  and  O1_2 
REMARK    2  A    between atoms: C2_3  and  N2_4 
REMARK       I    between atoms: N2_4  and  C7_13 
REMARK    3  A    between atoms: C3_5  and  O3_6 
REMARK    4  A    between atoms: O3_6  and  C1_46 
REMARK    5  A    between atoms: C4_7  and  O4_8 
REMARK    6  A    between atoms: O4_8  and  C1_19 
REMARK    7  A    between atoms: C5_9  and  C6_11 
REMARK    8  A    between atoms: C6_11  and  O6_12 
REMARK    9  A    between atoms: C2_20  and  O2_21 
REMARK   10  A    between atoms: O2_21  and  C1_33 
REMARK   11  A    between atoms: C3_22  and  O3_23 
REMARK   12  A    between atoms: C4_24  and  O4_25 
REMARK   13  A    between atoms: C5_26  and  C6_28 
REMARK   14  A    between atoms: C6_28  and  O6_29 
REMARK   15  A    between atoms: C2_34  and  O2_35 
REMARK   16  A    between atoms: C3_36  and  O3_37 
REMARK   17  A    between atoms: C4_38  and  O4_39 
REMARK   18  A    between atoms: C2_47  and  O2_48 
REMARK   19  A    between atoms: C3_49  and  O3_50 
REMARK   20  A    between atoms: C4_51  and  O4_52 
ROOT
HETATM    1  C1  NDG A   1     -36.919  43.357  17.188  1.00 18.25     0.282 C 
HETATM    2  C2  NDG A   1     -36.028  42.382  16.390  1.00 16.10     0.171 C 
HETATM    3  C3  NDG A   1     -36.881  41.404  15.572  1.00 17.07     0.183 C 
HETATM    4  C4  NDG A   1     -37.865  40.701  16.510  1.00 17.51     0.187 C 
HETATM    5  C5  NDG A   1     -38.724  41.766  17.214  1.00 19.75     0.180 C 
HETATM    6  O5  NDG A   1     -37.878  42.644  17.985  1.00 18.16    -0.349 OA
ENDROOT
BRANCH   4   7
HETATM    7  O4  NDG A   1     -38.704  39.777  15.779  1.00 18.39    -0.348 OA
BRANCH   7   8
HETATM    8  C1  GAL A   2     -39.276  38.753  16.527  1.00 19.47     0.292 C 
HETATM    9  C2  GAL A   2     -39.698  37.596  15.606  1.00 21.38     0.211 C 
HETATM   10  C3  GAL A   2     -40.274  36.469  16.463  1.00 22.16     0.183 C 
HETATM   11  C4  GAL A   2     -39.213  36.018  17.468  1.00 22.05     0.180 C 
HETATM   12  C5  GAL A   2     -38.809  37.224  18.323  1.00 19.68     0.179 C 
HETATM   13  O5  GAL A   2     -38.299  38.282  17.481  1.00 18.57    -0.348 OA
BRANCH   9  14
HETATM   14  O2  GAL A   2     -40.683  38.039  14.656  1.00 23.81    -0.346 OA
BRANCH  14  15
HETATM   15  C1  FUC A   3     -41.744  38.775  15.204  1.00 20.96     0.292 C 
HETATM   16  C2  FUC A   3     -41.996  40.032  14.369  1.00 21.55     0.204 C 
HETATM   17  C3  FUC A   3     -42.560  39.645  13.001  1.00 21.68     0.183 C 
HETATM   18  C4  FUC A   3     -43.825  38.806  13.183  1.00 23.00     0.178 C 
HETATM   19  C5  FUC A   3     -43.500  37.582  14.037  1.00 22.59     0.152 C 
HETATM   20  C6  FUC A   3     -44.729  36.748  14.339  1.00 21.54     0.042 C 
HETATM   21  O5  FUC A   3     -42.943  38.004  15.307  1.00 22.06    -0.351 OA
BRANCH  16  22
HETATM   22  O2  FUC A   3     -40.785  40.753  14.202  1.00 21.73    -0.388 OA
HETATM   23  H02 FUC A   3     -40.500  41.102  15.049  1.00 21.73     0.210 HD
ENDBRANCH  16  22
BRANCH  17  24
HETATM   24  O3  FUC A   3     -42.860  40.816  12.255  1.00 23.03    -0.390 OA
HETATM   25  H04 FUC A   3     -43.281  40.571  11.429  1.00 23.03     0.210 HD
ENDBRANCH  17  24
BRANCH  18  26
HETATM   26  O4  FUC A   3     -44.825  39.586  13.833  1.00 24.32    -0.390 OA
HETATM   27  H06 FUC A   3     -44.796  39.420  14.778  1.00 24.32     0.210 HD
ENDBRANCH  18  26
ENDBRANCH  14  15
ENDBRANCH   9  14
BRANCH  10  28
HETATM   28  O3  GAL A   2     -40.678  35.378  15.648  1.00 21.48    -0.390 OA
HETATM   29  H03 GAL A   2     -40.473  34.552  16.092  1.00 21.48     0.210 HD
ENDBRANCH  10  28
BRANCH  11  30
HETATM   30  O4  GAL A   2     -38.079  35.528  16.763  1.00 21.68    -0.390 OA
HETATM   31  H05 GAL A   2     -37.951  36.044  15.963  1.00 21.68     0.210 HD
ENDBRANCH  11  30
BRANCH  12  32
HETATM   32  C6  GAL A   2     -37.740  36.906  19.358  1.00 22.77     0.198 C 
BRANCH  32  33
HETATM   33  O6  GAL A   2     -36.616  37.765  19.229  1.00 21.83    -0.398 OA
HETATM   34  H09 GAL A   2     -35.964  37.355  18.656  1.00 21.83     0.209 HD
ENDBRANCH  32  33
ENDBRANCH  12  32
ENDBRANCH   7   8
ENDBRANCH   4   7
BRANCH   5  35
HETATM   35  C6  NDG A   1     -39.731  41.170  18.173  1.00 19.44     0.198 C 
BRANCH  35  36
HETATM   36  O6  NDG A   1     -39.089  40.651  19.333  1.00 22.44    -0.398 OA
HETATM   37  H10 NDG A   1     -39.519  39.835  19.599  1.00 22.44     0.209 HD
ENDBRANCH  35  36
ENDBRANCH   5  35
BRANCH   3  38
HETATM   38  O3  NDG A   1     -36.017  40.428  14.961  1.00 16.70    -0.348 OA
BRANCH  38  39
HETATM   39  C1  FUC A   4     -35.170  39.733  15.834  1.00 17.98     0.292 C 
HETATM   40  C2  FUC A   4     -35.112  38.260  15.409  1.00 18.98     0.204 C 
HETATM   41  C3  FUC A   4     -34.490  38.169  14.009  1.00 18.80     0.183 C 
HETATM   42  C4  FUC A   4     -33.109  38.833  14.012  1.00 19.03     0.178 C 
HETATM   43  C5  FUC A   4     -33.209  40.274  14.539  1.00 17.92     0.152 C 
HETATM   44  O5  FUC A   4     -33.855  40.280  15.834  1.00 17.36    -0.351 OA
HETATM   45  C6  FUC A   4     -31.851  40.934  14.710  1.00 17.47     0.042 C 
BRANCH  40  46
HETATM   46  O2  FUC A   4     -36.422  37.706  15.402  1.00 18.96    -0.388 OA
HETATM   47  H02 FUC A   4     -36.674  37.490  14.501  1.00 18.96     0.210 HD
ENDBRANCH  40  46
BRANCH  41  48
HETATM   48  O3  FUC A   4     -34.363  36.805  13.625  1.00 18.98    -0.390 OA
HETATM   49  H04 FUC A   4     -34.023  36.294  14.363  1.00 18.98     0.210 HD
ENDBRANCH  41  48
BRANCH  42  50
HETATM   50  O4  FUC A   4     -32.236  38.081  14.843  1.00 17.97    -0.390 OA
HETATM   51  H06 FUC A   4     -32.243  37.162  14.565  1.00 17.97     0.210 HD
ENDBRANCH  42  50
ENDBRANCH  38  39
ENDBRANCH   3  38
BRANCH   2  52
HETATM   52  N2  NDG A   1     -35.123  43.111  15.522  1.00 15.82    -0.349 N 
HETATM   53  H04 NDG A   1     -35.324  43.193  14.536  1.00 15.82     0.163 HD
HETATM   54  C7  NDG A   1     -34.027  43.673  16.029  1.00 18.26     0.214 C 
HETATM   55  O7  NDG A   1     -33.706  43.558  17.212  1.00 16.43    -0.274 OA
HETATM   56  C8  NDG A   1     -33.154  44.491  15.091  1.00 17.59     0.117 C 
ENDBRANCH   2  52
BRANCH   1  57
HETATM   57  O1  NDG A   1     -37.601  44.205  16.335  1.00 20.35    -0.369 OA
HETATM   58  H02 NDG A   1     -38.190  44.766  16.844  1.00 20.35     0.212 HD
ENDBRANCH   1  57
TORSDOF 20
BEGIN_RES TYR H  32
REMARK  3 active torsions:
REMARK  status: ('A' for Active; 'I' for Inactive)
REMARK    1  A    between atoms: CA   and  CB  
REMARK    2  A    between atoms: CB   and  CG  
REMARK    3  A    between atoms: CZ   and  OH  
ROOT
ATOM      1  CA  TYR H  32     -36.537  33.688  12.495  1.00 18.29     0.180 C 
ENDROOT
BRANCH   1   2
ATOM      2  CB  TYR H  32     -35.194  32.959  12.519  1.00 19.77     0.073 C 
BRANCH   2   3
ATOM      3  CG  TYR H  32     -34.767  32.430  13.860  1.00 22.87    -0.056 A 
ATOM      4  CD1 TYR H  32     -34.952  31.092  14.194  1.00 20.12     0.010 A 
ATOM      5  CE1 TYR H  32     -34.525  30.594  15.429  1.00 23.09     0.037 A 
ATOM      6  CZ  TYR H  32     -33.909  31.447  16.337  1.00 23.55     0.065 A 
ATOM      7  CE2 TYR H  32     -33.720  32.784  16.024  1.00 23.27     0.037 A 
ATOM      8  CD2 TYR H  32     -34.149  33.268  14.792  1.00 21.76     0.010 A 
BRANCH   6   9
ATOM      9  OH  TYR H  32     -33.471  30.959  17.554  1.00 24.63    -0.361 OA
ATOM     10  H09 TYR H  32     -32.800  30.288  17.407  1.00 24.63     0.217 HD
ENDBRANCH   6   9
ENDBRANCH   2   3
ENDBRANCH   1   2
END_RES TYR H  32
BEGIN_RES TYR H  33
REMARK  3 active torsions:
REMARK  status: ('A' for Active; 'I' for Inactive)
REMARK    4  A    between atoms: CA   and  CB  
REMARK    5  A    between atoms: CB   and  CG  
REMARK    6  A    between atoms: CZ   and  OH  
ROOT
ATOM     11  CA  TYR H  33     -35.954  36.540  10.090  1.00 16.40     0.180 C 
ENDROOT
BRANCH  11  12
ATOM     12  CB  TYR H  33     -35.592  37.970  10.478  1.00 15.75     0.073 C 
BRANCH  12  13
ATOM     13  CG  TYR H  33     -36.767  38.880  10.719  1.00 19.01    -0.056 A 
ATOM     14  CD1 TYR H  33     -37.805  38.509  11.575  1.00 16.84     0.010 A 
ATOM     15  CE1 TYR H  33     -38.879  39.373  11.816  1.00 19.32     0.037 A 
ATOM     16  CZ  TYR H  33     -38.912  40.611  11.201  1.00 19.88     0.065 A 
ATOM     17  CE2 TYR H  33     -37.891  41.000  10.347  1.00 21.27     0.037 A 
ATOM     18  CD2 TYR H  33     -36.828  40.134  10.110  1.00 18.42     0.010 A 
BRANCH  16  19
ATOM     19  OH  TYR H  33     -39.957  41.471  11.422  1.00 21.96    -0.361 OA
ATOM     20  H08 TYR H  33     -40.273  41.367  12.322  1.00 21.96     0.217 HD
ENDBRANCH  16  19
ENDBRANCH  12  13
ENDBRANCH  11  12
END_RES TYR H  33
BEGIN_RES TYR H  50
REMARK  3 active torsions:
REMARK  status: ('A' for Active; 'I' for Inactive)
REMARK    7  A    between atoms: CA   and  CB  
REMARK    8  A    between atoms: CB   and  CG  
REMARK    9  A    between atoms: CZ   and  OH  
ROOT
ATOM     21  CA  TYR H  50     -33.769  40.088   4.603  1.00 18.73     0.180 C 
ENDROOT
BRANCH  21  22
ATOM     22  CB  TYR H  50     -33.504  41.014   5.805  1.00 19.53     0.073 C 
BRANCH  22  23
ATOM     23  CG  TYR H  50     -34.567  42.049   6.135  1.00 22.78    -0.056 A 
ATOM     24  CD1 TYR H  50     -35.623  41.757   7.007  1.00 23.54     0.010 A 
ATOM     25  CE1 TYR H  50     -36.572  42.720   7.338  1.00 23.32     0.037 A 
ATOM     26  CZ  TYR H  50     -36.476  43.990   6.799  1.00 25.64     0.065 A 
ATOM     27  CE2 TYR H  50     -35.440  44.308   5.936  1.00 25.81     0.037 A 
ATOM     28  CD2 TYR H  50     -34.493  43.335   5.607  1.00 22.93     0.010 A 
BRANCH  26  29
ATOM     29  OH  TYR H  50     -37.419  44.945   7.110  1.00 26.65    -0.361 OA
ATOM     30  H09 TYR H  50     -36.997  45.806   7.165  1.00 26.65     0.217 HD
ENDBRANCH  26  29
ENDBRANCH  22  23
ENDBRANCH  21  22
END_RES TYR H  50
BEGIN_RES TRP H 105
REMARK  2 active torsions:
REMARK  status: ('A' for Active; 'I' for Inactive)
REMARK   10  A    between atoms: CA   and  CB  
REMARK   11  A    between atoms: CB   and  CG  
ROOT
ATOM     31  CA  TRP H 105     -27.730  39.492  12.437  1.00 18.07     0.181 C 
ENDROOT
BRANCH  31  32
ATOM     32  CB  TRP H 105     -27.228  40.633  11.544  1.00 18.23     0.075 C 
BRANCH  32  33
ATOM     33  CG  TRP H 105     -28.261  41.673  11.212  1.00 19.04    -0.028 A 
ATOM     34  CD1 TRP H 105     -28.771  41.949   9.978  1.00 17.14     0.096 A 
ATOM     35  NE1 TRP H 105     -29.673  42.984  10.058  1.00 18.41    -0.365 N 
ATOM     36  CE2 TRP H 105     -29.762  43.394  11.361  1.00 17.66     0.042 A 
ATOM     37  H07 TRP H 105     -30.186  43.378   9.282  1.00 18.41     0.165 HD
ATOM     38  CZ2 TRP H 105     -30.541  44.404  11.938  1.00 18.85     0.030 A 
ATOM     39  CD2 TRP H 105     -28.883  42.587  12.119  1.00 18.24    -0.002 A 
ATOM     40  CH2 TRP H 105     -30.427  44.597  13.290  1.00 17.37     0.002 A 
ATOM     41  CZ3 TRP H 105     -29.559  43.811  14.073  1.00 20.81     0.001 A 
ATOM     42  CE3 TRP H 105     -28.784  42.806  13.499  1.00 20.27     0.014 A 
ENDBRANCH  32  33
ENDBRANCH  31  32
END_RES TRP H 105
ENDMDL
MODEL 5
REMARK VINA RESULT:      -6.9      2.672      5.984
REMARK  20 active torsions:
REMARK  status: ('A' for Active; 'I' for Inactive)
REMARK    1  A    between atoms: C1_1  and  O1_2 
REMARK    2  A    between atoms: C2_3  and  N2_4 
REMARK       I    between atoms: N2_4  and  C7_13 
REMARK    3  A    between atoms: C3_5  and  O3_6 
REMARK    4  A    between atoms: O3_6  and  C1_46 
REMARK    5  A    between atoms: C4_7  and  O4_8 
REMARK    6  A    between atoms: O4_8  and  C1_19 
REMARK    7  A    between atoms: C5_9  and  C6_11 
REMARK    8  A    between atoms: C6_11  and  O6_12 
REMARK    9  A    between atoms: C2_20  and  O2_21 
REMARK   10  A    between atoms: O2_21  and  C1_33 
REMARK   11  A    between atoms: C3_22  and  O3_23 
REMARK   12  A    between atoms: C4_24  and  O4_25 
REMARK   13  A    between atoms: C5_26  and  C6_28 
REMARK   14  A    between atoms: C6_28  and  O6_29 
REMARK   15  A    between atoms: C2_34  and  O2_35 
REMARK   16  A    between atoms: C3_36  and  O3_37 
REMARK   17  A    between atoms: C4_38  and  O4_39 
REMARK   18  A    between atoms: C2_47  and  O2_48 
REMARK   19  A    between atoms: C3_49  and  O3_50 
REMARK   20  A    between atoms: C4_51  and  O4_52 
ROOT
HETATM    1  C1  NDG A   1     -32.597  41.477  14.088  1.00 18.25     0.282 C 
HETATM    2  C2  NDG A   1     -33.843  40.578  14.227  1.00 16.10     0.171 C 
HETATM    3  C3  NDG A   1     -35.125  41.368  13.934  1.00 17.07     0.183 C 
HETATM    4  C4  NDG A   1     -35.161  42.604  14.837  1.00 17.51     0.187 C 
HETATM    5  C5  NDG A   1     -33.896  43.441  14.581  1.00 19.75     0.180 C 
HETATM    6  O5  NDG A   1     -32.723  42.661  14.892  1.00 18.16    -0.349 OA
ENDROOT
BRANCH   4   7
HETATM    7  O4  NDG A   1     -36.348  43.391  14.587  1.00 18.39    -0.348 OA
BRANCH   7   8
HETATM    8  C1  GAL A   2     -36.583  44.436  15.474  1.00 19.47     0.292 C 
HETATM    9  C2  GAL A   2     -37.237  45.618  14.740  1.00 21.38     0.211 C 
HETATM   10  C3  GAL A   2     -37.528  46.726  15.752  1.00 22.16     0.183 C 
HETATM   11  C4  GAL A   2     -38.449  46.174  16.840  1.00 22.05     0.180 C 
HETATM   12  C5  GAL A   2     -37.757  44.977  17.502  1.00 19.68     0.179 C 
HETATM   13  O5  GAL A   2     -37.466  43.962  16.514  1.00 18.57    -0.348 OA
BRANCH   9  14
HETATM   14  O2  GAL A   2     -36.367  46.116  13.708  1.00 23.81    -0.346 OA
BRANCH  14  15
HETATM   15  C1  FUC A   3     -36.914  46.103  12.416  1.00 20.96     0.292 C 
HETATM   16  C2  FUC A   3     -36.476  47.353  11.650  1.00 21.55     0.204 C 
HETATM   17  C3  FUC A   3     -34.977  47.283  11.352  1.00 21.68     0.183 C 
HETATM   18  C4  FUC A   3     -34.661  45.995  10.593  1.00 23.00     0.178 C 
HETATM   19  C5  FUC A   3     -35.141  44.797  11.409  1.00 22.59     0.152 C 
HETATM   20  C6  FUC A   3     -34.944  43.485  10.676  1.00 21.54     0.042 C 
HETATM   21  O5  FUC A   3     -36.557  44.928  11.687  1.00 22.06    -0.351 OA
BRANCH  16  22
HETATM   22  O2  FUC A   3     -36.760  48.515  12.414  1.00 21.73    -0.388 OA
HETATM   23  H02 FUC A   3     -36.429  49.290  11.954  1.00 21.73     0.210 HD
ENDBRANCH  16  22
BRANCH  17  24
HETATM   24  O3  FUC A   3     -34.587  48.409  10.579  1.00 23.03    -0.390 OA
HETATM   25  H04 FUC A   3     -34.744  48.229   9.649  1.00 23.03     0.210 HD
ENDBRANCH  17  24
BRANCH  18  26
HETATM   26  O4  FUC A   3     -35.328  46.008   9.334  1.00 24.32    -0.390 OA
HETATM   27  H06 FUC A   3     -36.218  45.663   9.439  1.00 24.32     0.210 HD
ENDBRANCH  18  26
ENDBRANCH  14  15
ENDBRANCH   9  14
BRANCH  10  28
HETATM   28  O3  GAL A   2     -38.133  47.841  15.111  1.00 21.48    -0.390 OA
HETATM   29  H03 GAL A   2     -38.278  47.639  14.184  1.00 21.48     0.210 HD
ENDBRANCH  10  28
BRANCH  11  30
HETATM   30  O4  GAL A   2     -39.673  45.755  16.251  1.00 21.68    -0.390 OA
HETATM   31  H05 GAL A   2     -39.555  45.657  15.302  1.00 21.68     0.210 HD
ENDBRANCH  11  30
BRANCH  12  32
HETATM   32  C6  GAL A   2     -38.584  44.326  18.600  1.00 22.77     0.198 C 
BRANCH  32  33
HETATM   33  O6  GAL A   2     -39.394  43.276  18.090  1.00 21.83    -0.398 OA
HETATM   34  H09 GAL A   2     -38.853  42.499  17.937  1.00 21.83     0.209 HD
ENDBRANCH  32  33
ENDBRANCH  12  32
ENDBRANCH   7   8
ENDBRANCH   4   7
BRANCH   5  35
HETATM   35  C6  NDG A   1     -33.833  44.688  15.434  1.00 19.44     0.198 C 
BRANCH  35  36
HETATM   36  O6  NDG A   1     -33.614  45.847  14.635  1.00 22.44    -0.398 OA
HETATM   37  H10 NDG A   1     -34.445  46.307  14.503  1.00 22.44     0.209 HD
ENDBRANCH  35  36
ENDBRANCH   5  35
BRANCH   3  38
HETATM   38  O3  NDG A   1     -36.263  40.533  14.214  1.00 16.70    -0.348 OA
BRANCH  38  39
HETATM   39  C1  FUC A   4     -36.365  40.064  15.530  1.00 17.98     0.292 C 
HETATM   40  C2  FUC A   4     -37.833  40.119  15.970  1.00 18.98     0.204 C 
HETATM   41  C3  FUC A   4     -38.654  39.169  15.088  1.00 18.80     0.183 C 
HETATM   42  C4  FUC A   4     -38.072  37.754  15.167  1.00 19.03     0.178 C 
HETATM   43  C5  FUC A   4     -36.576  37.770  14.813  1.00 17.92     0.152 C 
HETATM   44  O5  FUC A   4     -35.884  38.728  15.648  1.00 17.36    -0.351 OA
HETATM   45  C6  FUC A   4     -35.907  36.422  15.022  1.00 17.47     0.042 C 
BRANCH  40  46
HETATM   46  O2  FUC A   4     -38.325  41.449  15.852  1.00 18.96    -0.388 OA
HETATM   47  H02 FUC A   4     -39.263  41.428  15.653  1.00 18.96     0.210 HD
ENDBRANCH  40  46
BRANCH  41  48
HETATM   48  O3  FUC A   4     -40.009  39.154  15.525  1.00 18.98    -0.390 OA
HETATM   49  H04 FUC A   4     -40.515  38.547  14.980  1.00 18.98     0.210 HD
ENDBRANCH  41  48
BRANCH  42  50
HETATM   50  O4  FUC A   4     -38.244  37.258  16.486  1.00 17.97    -0.390 OA
HETATM   51  H06 FUC A   4     -38.912  37.777  16.940  1.00 17.97     0.210 HD
ENDBRANCH  42  50
ENDBRANCH  38  39
ENDBRANCH   3  38
BRANCH   2  52
HETATM   52  N2  NDG A   1     -33.745  39.430  13.345  1.00 15.82    -0.349 N 
HETATM   53  H04 NDG A   1     -34.215  39.437  12.451  1.00 15.82     0.163 HD
HETATM   54  C7  NDG A   1     -33.034  38.367  13.716  1.00 18.26     0.214 C 
HETATM   55  O7  NDG A   1     -32.487  38.283  14.816  1.00 16.43    -0.274 OA
HETATM   56  C8  NDG A   1     -32.900  37.224  12.723  1.00 17.59     0.117 C 
ENDBRANCH   2  52
BRANCH   1  57
HETATM   57  O1  NDG A   1     -32.413  41.857  12.770  1.00 20.35    -0.369 OA
HETATM   58  H02 NDG A   1     -33.219  42.258  12.437  1.00 20.35     0.212 HD
ENDBRANCH   1  57
TORSDOF 20
BEGIN_RES TYR H  32
REMARK  3 active torsions:
REMARK  status: ('A' for Active; 'I' for Inactive)
REMARK    1  A    between atoms: CA   and  CB  
REMARK    2  A    between atoms: CB   and  CG  
REMARK    3  A    between atoms: CZ   and  OH  
ROOT
ATOM      1  CA  TYR H  32     -36.537  33.688  12.495  1.00 18.29     0.180 C 
ENDROOT
BRANCH   1   2
ATOM      2  CB  TYR H  32     -35.194  32.959  12.519  1.00 19.77     0.073 C 
BRANCH   2   3
ATOM      3  CG  TYR H  32     -34.770  32.425  13.859  1.00 22.87    -0.056 A 
ATOM      4  CD1 TYR H  32     -34.970  31.090  14.195  1.00 20.12     0.010 A 
ATOM      5  CE1 TYR H  32     -34.546  30.587  15.428  1.00 23.09     0.037 A 
ATOM      6  CZ  TYR H  32     -33.917  31.433  16.333  1.00 23.55     0.065 A 
ATOM      7  CE2 TYR H  32     -33.712  32.767  16.019  1.00 23.27     0.037 A 
ATOM      8  CD2 TYR H  32     -34.138  33.256  14.788  1.00 21.76     0.010 A 
BRANCH   6   9
ATOM      9  OH  TYR H  32     -33.481  30.940  17.549  1.00 24.63    -0.361 OA
ATOM     10  H09 TYR H  32     -34.225  30.869  18.152  1.00 24.63     0.217 HD
ENDBRANCH   6   9
ENDBRANCH   2   3
ENDBRANCH   1   2
END_RES TYR H  32
BEGIN_RES TYR H  33
REMARK  3 active torsions:
REMARK  status: ('A' for Active; 'I' for Inactive)
REMARK    4  A    between atoms: CA   and  CB  
REMARK    5  A    between atoms: CB   and  CG  
REMARK    6  A    between atoms: CZ   and  OH  
ROOT
ATOM     11  CA  TYR H  33     -35.954  36.540  10.090  1.00 16.40     0.180 C 
ENDROOT
BRANCH  11  12
ATOM     12  CB  TYR H  33     -35.592  37.970  10.478  1.00 15.75     0.073 C 
BRANCH  12  13
ATOM     13  CG  TYR H  33     -36.767  38.879  10.722  1.00 19.01    -0.056 A 
ATOM     14  CD1 TYR H  33     -37.883  38.442  11.435  1.00 16.84     0.010 A 
ATOM     15  CE1 TYR H  33     -38.959  39.302  11.683  1.00 19.32     0.037 A 
ATOM     16  CZ  TYR H  33     -38.914  40.604  11.218  1.00 19.88     0.065 A 
ATOM     17  CE2 TYR H  33     -37.815  41.059  10.506  1.00 21.27     0.037 A 
ATOM     18  CD2 TYR H  33     -36.751  40.196  10.262  1.00 18.42     0.010 A 
BRANCH  16  19
ATOM     19  OH  TYR H  33     -39.959  41.461  11.447  1.00 21.96    -0.361 OA
ATOM     20  H08 TYR H  33     -40.383  41.681  10.614  1.00 21.96     0.217 HD
ENDBRANCH  16  19
ENDBRANCH  12  13
ENDBRANCH  11  12
END_RES TYR H  33
BEGIN_RES TYR H  50
REMARK  3 active torsions:
REMARK  status: ('A' for Active; 'I' for Inactive)
REMARK    7  A    between atoms: CA   and  CB  
REMARK    8  A    between atoms: CB   and  CG  
REMARK    9  A    between atoms: CZ   and  OH  
ROOT
ATOM     21  CA  TYR H  50     -33.769  40.088   4.603  1.00 18.73     0.180 C 
ENDROOT
BRANCH  21  22
ATOM     22  CB  TYR H  50     -33.504  41.014   5.805  1.00 19.53     0.073 C 
BRANCH  22  23
ATOM     23  CG  TYR H  50     -34.579  42.031   6.152  1.00 22.78    -0.056 A 
ATOM     24  CD1 TYR H  50     -35.592  41.737   7.073  1.00 23.54     0.010 A 
ATOM     25  CE1 TYR H  50     -36.551  42.684   7.417  1.00 23.32     0.037 A 
ATOM     26  CZ  TYR H  50     -36.508  43.942   6.843  1.00 25.64     0.065 A 
ATOM     27  CE2 TYR H  50     -35.516  44.262   5.931  1.00 25.81     0.037 A 
ATOM     28  CD2 TYR H  50     -34.559  43.304   5.588  1.00 22.93     0.010 A 
BRANCH  26  29
ATOM     29  OH  TYR H  50     -37.462  44.882   7.167  1.00 26.65    -0.361 OA
ATOM     30  H09 TYR H  50     -38.132  44.479   7.724  1.00 26.65     0.217 HD
ENDBRANCH  26  29
ENDBRANCH  22  23
ENDBRANCH  21  22
END_RES TYR H  50
BEGIN_RES TRP H 105
REMARK  2 active torsions:
REMARK  status: ('A' for Active; 'I' for Inactive)
REMARK   10  A    between atoms: CA   and  CB  
REMARK   11  A    between atoms: CB   and  CG  
ROOT
ATOM     31  CA  TRP H 105     -27.730  39.492  12.437  1.00 18.07     0.181 C 
ENDROOT
BRANCH  31  32
ATOM     32  CB  TRP H 105     -27.228  40.633  11.544  1.00 18.23     0.075 C 
BRANCH  32  33
ATOM     33  CG  TRP H 105     -28.256  41.681  11.226  1.00 19.04    -0.028 A 
ATOM     34  CD1 TRP H 105     -28.770  41.972   9.996  1.00 17.14     0.096 A 
ATOM     35  NE1 TRP H 105     -29.666  43.011  10.090  1.00 18.41    -0.365 N 
ATOM     36  CE2 TRP H 105     -29.747  43.410  11.397  1.00 17.66     0.042 A 
ATOM     37  H07 TRP H 105     -30.180  43.415   9.320  1.00 18.41     0.165 HD
ATOM     38  CZ2 TRP H 105     -30.518  44.419  11.986  1.00 18.85     0.030 A 
ATOM     39  CD2 TRP H 105     -28.870  42.591  12.144  1.00 18.24    -0.002 A 
ATOM     40  CH2 TRP H 105     -30.398  44.599  13.340  1.00 17.37     0.002 A 
ATOM     41  CZ3 TRP H 105     -29.531  43.800  14.112  1.00 20.81     0.001 A 
ATOM     42  CE3 TRP H 105     -28.764  42.796  13.525  1.00 20.27     0.014 A 
ENDBRANCH  32  33
ENDBRANCH  31  32
END_RES TRP H 105
ENDMDL
MODEL 6
REMARK VINA RESULT:      -6.5      3.311      6.055
REMARK  20 active torsions:
REMARK  status: ('A' for Active; 'I' for Inactive)
REMARK    1  A    between atoms: C1_1  and  O1_2 
REMARK    2  A    between atoms: C2_3  and  N2_4 
REMARK       I    between atoms: N2_4  and  C7_13 
REMARK    3  A    between atoms: C3_5  and  O3_6 
REMARK    4  A    between atoms: O3_6  and  C1_46 
REMARK    5  A    between atoms: C4_7  and  O4_8 
REMARK    6  A    between atoms: O4_8  and  C1_19 
REMARK    7  A    between atoms: C5_9  and  C6_11 
REMARK    8  A    between atoms: C6_11  and  O6_12 
REMARK    9  A    between atoms: C2_20  and  O2_21 
REMARK   10  A    between atoms: O2_21  and  C1_33 
REMARK   11  A    between atoms: C3_22  and  O3_23 
REMARK   12  A    between atoms: C4_24  and  O4_25 
REMARK   13  A    between atoms: C5_26  and  C6_28 
REMARK   14  A    between atoms: C6_28  and  O6_29 
REMARK   15  A    between atoms: C2_34  and  O2_35 
REMARK   16  A    between atoms: C3_36  and  O3_37 
REMARK   17  A    between atoms: C4_38  and  O4_39 
REMARK   18  A    between atoms: C2_47  and  O2_48 
REMARK   19  A    between atoms: C3_49  and  O3_50 
REMARK   20  A    between atoms: C4_51  and  O4_52 
ROOT
HETATM    1  C1  NDG A   1     -34.515  42.870  20.208  1.00 18.25     0.282 C 
HETATM    2  C2  NDG A   1     -35.251  44.096  19.629  1.00 16.10     0.171 C 
HETATM    3  C3  NDG A   1     -35.920  43.752  18.292  1.00 17.07     0.183 C 
HETATM    4  C4  NDG A   1     -34.867  43.171  17.346  1.00 17.51     0.187 C 
HETATM    5  C5  NDG A   1     -34.234  41.935  18.009  1.00 19.75     0.180 C 
HETATM    6  O5  NDG A   1     -33.601  42.316  19.248  1.00 18.16    -0.349 OA
ENDROOT
BRANCH   4   7
HETATM    7  O4  NDG A   1     -35.455  42.817  16.073  1.00 18.39    -0.348 OA
BRANCH   7   8
HETATM    8  C1  GAL A   2     -34.661  43.040  14.953  1.00 19.47     0.292 C 
HETATM    9  C2  GAL A   2     -34.897  41.936  13.908  1.00 21.38     0.211 C 
HETATM   10  C3  GAL A   2     -34.049  42.239  12.673  1.00 22.16     0.183 C 
HETATM   11  C4  GAL A   2     -34.442  43.611  12.126  1.00 22.05     0.180 C 
HETATM   12  C5  GAL A   2     -34.222  44.655  13.227  1.00 19.68     0.179 C 
HETATM   13  O5  GAL A   2     -35.012  44.323  14.391  1.00 18.57    -0.348 OA
BRANCH   9  14
HETATM   14  O2  GAL A   2     -34.539  40.649  14.442  1.00 23.81    -0.346 OA
BRANCH  14  15
HETATM   15  C1  FUC A   3     -35.230  39.564  13.881  1.00 20.96     0.292 C 
HETATM   16  C2  FUC A   3     -34.269  38.396  13.649  1.00 21.55     0.204 C 
HETATM   17  C3  FUC A   3     -33.819  37.817  14.991  1.00 21.68     0.183 C 
HETATM   18  C4  FUC A   3     -35.041  37.409  15.814  1.00 23.00     0.178 C 
HETATM   19  C5  FUC A   3     -35.958  38.618  15.989  1.00 22.59     0.152 C 
HETATM   20  C6  FUC A   3     -37.239  38.267  16.718  1.00 21.54     0.042 C 
HETATM   21  O5  FUC A   3     -36.330  39.144  14.690  1.00 22.06    -0.351 OA
BRANCH  16  22
HETATM   22  O2  FUC A   3     -33.138  38.837  12.913  1.00 21.73    -0.388 OA
HETATM   23  H02 FUC A   3     -33.162  38.459  12.032  1.00 21.73     0.210 HD
ENDBRANCH  16  22
BRANCH  17  24
HETATM   24  O3  FUC A   3     -32.984  36.688  14.773  1.00 23.03    -0.390 OA
HETATM   25  H04 FUC A   3     -33.506  35.970  14.408  1.00 23.03     0.210 HD
ENDBRANCH  17  24
BRANCH  18  26
HETATM   26  O4  FUC A   3     -35.747  36.373  15.137  1.00 24.32    -0.390 OA
HETATM   27  H06 FUC A   3     -35.948  36.654  14.242  1.00 24.32     0.210 HD
ENDBRANCH  18  26
ENDBRANCH  14  15
ENDBRANCH   9  14
BRANCH  10  28
HETATM   28  O3  GAL A   2     -34.238  41.239  11.681  1.00 21.48    -0.390 OA
HETATM   29  H03 GAL A   2     -34.178  40.370  12.085  1.00 21.48     0.210 HD
ENDBRANCH  10  28
BRANCH  11  30
HETATM   30  O4  GAL A   2     -35.814  43.591  11.750  1.00 21.68    -0.390 OA
HETATM   31  H05 GAL A   2     -36.361  43.525  12.537  1.00 21.68     0.210 HD
ENDBRANCH  11  30
BRANCH  12  32
HETATM   32  C6  GAL A   2     -34.594  46.070  12.808  1.00 22.77     0.198 C 
BRANCH  32  33
HETATM   33  O6  GAL A   2     -33.520  46.716  12.141  1.00 21.83    -0.398 OA
HETATM   34  H09 GAL A   2     -33.305  46.235  11.338  1.00 21.83     0.209 HD
ENDBRANCH  32  33
ENDBRANCH  12  32
ENDBRANCH   7   8
ENDBRANCH   4   7
BRANCH   5  35
HETATM   35  C6  NDG A   1     -33.170  41.287  17.152  1.00 19.44     0.198 C 
BRANCH  35  36
HETATM   36  O6  NDG A   1     -33.146  39.876  17.342  1.00 22.44    -0.398 OA
HETATM   37  H10 NDG A   1     -32.238  39.581  17.440  1.00 22.44     0.209 HD
ENDBRANCH  35  36
ENDBRANCH   5  35
BRANCH   3  38
HETATM   38  O3  NDG A   1     -36.469  44.955  17.722  1.00 16.70    -0.348 OA
BRANCH  38  39
HETATM   39  C1  FUC A   4     -37.867  45.034  17.696  1.00 17.98     0.292 C 
HETATM   40  C2  FUC A   4     -38.290  46.497  17.883  1.00 18.98     0.204 C 
HETATM   41  C3  FUC A   4     -37.770  47.322  16.698  1.00 18.80     0.183 C 
HETATM   42  C4  FUC A   4     -38.287  46.725  15.385  1.00 19.03     0.178 C 
HETATM   43  C5  FUC A   4     -37.922  45.235  15.293  1.00 17.92     0.152 C 
HETATM   44  O5  FUC A   4     -38.397  44.539  16.470  1.00 17.36    -0.351 OA
HETATM   45  C6  FUC A   4     -38.539  44.551  14.085  1.00 17.47     0.042 C 
BRANCH  40  46
HETATM   46  O2  FUC A   4     -37.762  47.001  19.104  1.00 18.96    -0.388 OA
HETATM   47  H02 FUC A   4     -37.004  46.474  19.367  1.00 18.96     0.210 HD
ENDBRANCH  40  46
BRANCH  41  48
HETATM   48  O3  FUC A   4     -38.211  48.670  16.818  1.00 18.98    -0.390 OA
HETATM   49  H04 FUC A   4     -38.818  48.744  17.558  1.00 18.98     0.210 HD
ENDBRANCH  41  48
BRANCH  42  50
HETATM   50  O4  FUC A   4     -39.698  46.875  15.335  1.00 17.97    -0.390 OA
HETATM   51  H06 FUC A   4     -39.994  46.817  14.423  1.00 17.97     0.210 HD
ENDBRANCH  42  50
ENDBRANCH  38  39
ENDBRANCH   3  38
BRANCH   2  52
HETATM   52  N2  NDG A   1     -36.234  44.594  20.573  1.00 15.82    -0.349 N 
HETATM   53  H04 NDG A   1     -37.156  44.185  20.606  1.00 15.82     0.163 HD
HETATM   54  C7  NDG A   1     -35.916  45.592  21.395  1.00 18.26     0.214 C 
HETATM   55  O7  NDG A   1     -34.826  46.164  21.359  1.00 16.43    -0.274 OA
HETATM   56  C8  NDG A   1     -36.956  46.024  22.416  1.00 17.59     0.117 C 
ENDBRANCH   2  52
BRANCH   1  57
HETATM   57  O1  NDG A   1     -35.416  41.887  20.575  1.00 20.35    -0.369 OA
HETATM   58  H02 NDG A   1     -36.311  42.207  20.443  1.00 20.35     0.212 HD
ENDBRANCH   1  57
TORSDOF 20
BEGIN_RES TYR H  32
REMARK  3 active torsions:
REMARK  status: ('A' for Active; 'I' for Inactive)
REMARK    1  A    between atoms: CA   and  CB  
REMARK    2  A    between atoms: CB   and  CG  
REMARK    3  A    between atoms: CZ   and  OH  
ROOT
ATOM      1  CA  TYR H  32     -36.537  33.688  12.495  1.00 18.29     0.180 C 
ENDROOT
BRANCH   1   2
ATOM      2  CB  TYR H  32     -35.194  32.959  12.519  1.00 19.77     0.073 C 
BRANCH   2   3
ATOM      3  CG  TYR H  32     -34.769  32.427  13.859  1.00 22.87    -0.056 A 
ATOM      4  CD1 TYR H  32     -34.980  31.095  14.202  1.00 20.12     0.010 A 
ATOM      5  CE1 TYR H  32     -34.555  30.594  15.436  1.00 23.09     0.037 A 
ATOM      6  CZ  TYR H  32     -33.914  31.438  16.334  1.00 23.55     0.065 A 
ATOM      7  CE2 TYR H  32     -33.698  32.769  16.014  1.00 23.27     0.037 A 
ATOM      8  CD2 TYR H  32     -34.126  33.256  14.783  1.00 21.76     0.010 A 
BRANCH   6   9
ATOM      9  OH  TYR H  32     -33.477  30.946  17.551  1.00 24.63    -0.361 OA
ATOM     10  H09 TYR H  32     -32.706  31.441  17.838  1.00 24.63     0.217 HD
ENDBRANCH   6   9
ENDBRANCH   2   3
ENDBRANCH   1   2
END_RES TYR H  32
BEGIN_RES TYR H  33
REMARK  3 active torsions:
REMARK  status: ('A' for Active; 'I' for Inactive)
REMARK    4  A    between atoms: CA   and  CB  
REMARK    5  A    between atoms: CB   and  CG  
REMARK    6  A    between atoms: CZ   and  OH  
ROOT
ATOM     11  CA  TYR H  33     -35.954  36.540  10.090  1.00 16.40     0.180 C 
ENDROOT
BRANCH  11  12
ATOM     12  CB  TYR H  33     -35.592  37.970  10.478  1.00 15.75     0.073 C 
BRANCH  12  13
ATOM     13  CG  TYR H  33     -36.766  38.893  10.673  1.00 19.01    -0.056 A 
ATOM     14  CD1 TYR H  33     -37.818  38.553  11.524  1.00 16.84     0.010 A 
ATOM     15  CE1 TYR H  33     -38.892  39.429  11.723  1.00 19.32     0.037 A 
ATOM     16  CZ  TYR H  33     -38.909  40.647  11.068  1.00 19.88     0.065 A 
ATOM     17  CE2 TYR H  33     -37.874  41.004  10.217  1.00 21.27     0.037 A 
ATOM     18  CD2 TYR H  33     -36.812  40.127  10.024  1.00 18.42     0.010 A 
BRANCH  16  19
ATOM     19  OH  TYR H  33     -39.954  41.518  11.246  1.00 21.96    -0.361 OA
ATOM     20  H08 TYR H  33     -39.612  42.393  11.445  1.00 21.96     0.217 HD
ENDBRANCH  16  19
ENDBRANCH  12  13
ENDBRANCH  11  12
END_RES TYR H  33
BEGIN_RES TYR H  50
REMARK  3 active torsions:
REMARK  status: ('A' for Active; 'I' for Inactive)
REMARK    7  A    between atoms: CA   and  CB  
REMARK    8  A    between atoms: CB   and  CG  
REMARK    9  A    between atoms: CZ   and  OH  
ROOT
ATOM     21  CA  TYR H  50     -33.769  40.088   4.603  1.00 18.73     0.180 C 
ENDROOT
BRANCH  21  22
ATOM     22  CB  TYR H  50     -33.504  41.014   5.805  1.00 19.53     0.073 C 
BRANCH  22  23
ATOM     23  CG  TYR H  50     -34.548  42.076   6.110  1.00 22.78    -0.056 A 
ATOM     24  CD1 TYR H  50     -35.672  41.789   6.895  1.00 23.54     0.010 A 
ATOM     25  CE1 TYR H  50     -36.605  42.774   7.205  1.00 23.32     0.037 A 
ATOM     26  CZ  TYR H  50     -36.424  44.062   6.734  1.00 25.64     0.065 A 
ATOM     27  CE2 TYR H  50     -35.320  44.375   5.958  1.00 25.81     0.037 A 
ATOM     28  CD2 TYR H  50     -34.390  43.380   5.648  1.00 22.93     0.010 A 
BRANCH  26  29
ATOM     29  OH  TYR H  50     -37.350  45.039   7.023  1.00 26.65    -0.361 OA
ATOM     30  H09 TYR H  50     -38.107  44.644   7.461  1.00 26.65     0.217 HD
ENDBRANCH  26  29
ENDBRANCH  22  23
ENDBRANCH  21  22
END_RES TYR H  50
BEGIN_RES TRP H 105
REMARK  2 active torsions:
REMARK  status: ('A' for Active; 'I' for Inactive)
REMARK   10  A    between atoms: CA   and  CB  
REMARK   11  A    between atoms: CB   and  CG  
ROOT
ATOM     31  CA  TRP H 105     -27.730  39.492  12.437  1.00 18.07     0.181 C 
ENDROOT
BRANCH  31  32
ATOM     32  CB  TRP H 105     -27.228  40.633  11.544  1.00 18.23     0.075 C 
BRANCH  32  33
ATOM     33  CG  TRP H 105     -28.258  41.678  11.221  1.00 19.04    -0.028 A 
ATOM     34  CD1 TRP H 105     -28.713  42.018   9.981  1.00 17.14     0.096 A 
ATOM     35  NE1 TRP H 105     -29.631  43.037  10.075  1.00 18.41    -0.365 N 
ATOM     36  CE2 TRP H 105     -29.787  43.372  11.393  1.00 17.66     0.042 A 
ATOM     37  H07 TRP H 105     -30.113  43.468   9.299  1.00 18.41     0.165 HD
ATOM     38  CZ2 TRP H 105     -30.607  44.339  11.987  1.00 18.85     0.030 A 
ATOM     39  CD2 TRP H 105     -28.935  42.534  12.147  1.00 18.24    -0.002 A 
ATOM     40  CH2 TRP H 105     -30.560  44.457  13.352  1.00 17.37     0.002 A 
ATOM     41  CZ3 TRP H 105     -29.719  43.638  14.131  1.00 20.81     0.001 A 
ATOM     42  CE3 TRP H 105     -28.905  42.675  13.540  1.00 20.27     0.014 A 
ENDBRANCH  32  33
ENDBRANCH  31  32
END_RES TRP H 105
ENDMDL
MODEL 7
REMARK VINA RESULT:      -6.5      2.336      5.568
REMARK  20 active torsions:
REMARK  status: ('A' for Active; 'I' for Inactive)
REMARK    1  A    between atoms: C1_1  and  O1_2 
REMARK    2  A    between atoms: C2_3  and  N2_4 
REMARK       I    between atoms: N2_4  and  C7_13 
REMARK    3  A    between atoms: C3_5  and  O3_6 
REMARK    4  A    between atoms: O3_6  and  C1_46 
REMARK    5  A    between atoms: C4_7  and  O4_8 
REMARK    6  A    between atoms: O4_8  and  C1_19 
REMARK    7  A    between atoms: C5_9  and  C6_11 
REMARK    8  A    between atoms: C6_11  and  O6_12 
REMARK    9  A    between atoms: C2_20  and  O2_21 
REMARK   10  A    between atoms: O2_21  and  C1_33 
REMARK   11  A    between atoms: C3_22  and  O3_23 
REMARK   12  A    between atoms: C4_24  and  O4_25 
REMARK   13  A    between atoms: C5_26  and  C6_28 
REMARK   14  A    between atoms: C6_28  and  O6_29 
REMARK   15  A    between atoms: C2_34  and  O2_35 
REMARK   16  A    between atoms: C3_36  and  O3_37 
REMARK   17  A    between atoms: C4_38  and  O4_39 
REMARK   18  A    between atoms: C2_47  and  O2_48 
REMARK   19  A    between atoms: C3_49  and  O3_50 
REMARK   20  A    between atoms: C4_51  and  O4_52 
ROOT
HETATM    1  C1  NDG A   1     -39.307  40.452  16.777  1.00 18.25     0.282 C 
HETATM    2  C2  NDG A   1     -38.277  39.489  16.152  1.00 16.10     0.171 C 
HETATM    3  C3  NDG A   1     -37.041  40.252  15.659  1.00 17.07     0.183 C 
HETATM    4  C4  NDG A   1     -37.492  41.363  14.708  1.00 17.51     0.187 C 
HETATM    5  C5  NDG A   1     -38.479  42.281  15.450  1.00 19.75     0.180 C 
HETATM    6  O5  NDG A   1     -39.630  41.520  15.872  1.00 18.16    -0.349 OA
ENDROOT
BRANCH   4   7
HETATM    7  O4  NDG A   1     -36.359  42.122  14.226  1.00 18.39    -0.348 OA
BRANCH   7   8
HETATM    8  C1  GAL A   2     -35.529  42.662  15.202  1.00 19.47     0.292 C 
HETATM    9  C2  GAL A   2     -35.431  44.187  15.031  1.00 21.38     0.211 C 
HETATM   10  C3  GAL A   2     -34.554  44.753  16.147  1.00 22.16     0.183 C 
HETATM   11  C4  GAL A   2     -35.173  44.387  17.497  1.00 22.05     0.180 C 
HETATM   12  C5  GAL A   2     -35.279  42.860  17.586  1.00 19.68     0.179 C 
HETATM   13  O5  GAL A   2     -36.086  42.354  16.498  1.00 18.57    -0.348 OA
BRANCH   9  14
HETATM   14  O2  GAL A   2     -34.863  44.517  13.751  1.00 23.81    -0.346 OA
BRANCH  14  15
HETATM   15  C1  FUC A   3     -35.796  44.685  12.716  1.00 20.96     0.292 C 
HETATM   16  C2  FUC A   3     -35.888  46.162  12.329  1.00 21.55     0.204 C 
HETATM   17  C3  FUC A   3     -34.590  46.606  11.652  1.00 21.68     0.183 C 
HETATM   18  C4  FUC A   3     -34.302  45.707  10.449  1.00 23.00     0.178 C 
HETATM   19  C5  FUC A   3     -34.241  44.252  10.909  1.00 22.59     0.152 C 
HETATM   20  C6  FUC A   3     -34.050  43.291   9.753  1.00 21.54     0.042 C 
HETATM   21  O5  FUC A   3     -35.481  43.894  11.568  1.00 22.06    -0.351 OA
BRANCH  16  22
HETATM   22  O2  FUC A   3     -36.120  46.952  13.484  1.00 21.73    -0.388 OA
HETATM   23  H02 FUC A   3     -36.872  46.602  13.966  1.00 21.73     0.210 HD
ENDBRANCH  16  22
BRANCH  17  24
HETATM   24  O3  FUC A   3     -34.705  47.957  11.229  1.00 23.03    -0.390 OA
HETATM   25  H04 FUC A   3     -35.536  48.078  10.765  1.00 23.03     0.210 HD
ENDBRANCH  17  24
BRANCH  18  26
HETATM   26  O4  FUC A   3     -35.339  45.856   9.484  1.00 24.32    -0.390 OA
HETATM   27  H06 FUC A   3     -34.952  45.932   8.608  1.00 24.32     0.210 HD
ENDBRANCH  18  26
ENDBRANCH  14  15
ENDBRANCH   9  14
BRANCH  10  28
HETATM   28  O3  GAL A   2     -34.437  46.164  16.024  1.00 21.48    -0.390 OA
HETATM   29  H03 GAL A   2     -35.311  46.553  15.945  1.00 21.48     0.210 HD
ENDBRANCH  10  28
BRANCH  11  30
HETATM   30  O4  GAL A   2     -36.469  44.965  17.590  1.00 21.68    -0.390 OA
HETATM   31  H05 GAL A   2     -36.704  45.363  16.749  1.00 21.68     0.210 HD
ENDBRANCH  11  30
BRANCH  12  32
HETATM   32  C6  GAL A   2     -35.898  42.367  18.885  1.00 22.77     0.198 C 
BRANCH  32  33
HETATM   33  O6  GAL A   2     -35.746  43.317  19.929  1.00 21.83    -0.398 OA
HETATM   34  H09 GAL A   2     -34.873  43.714  19.877  1.00 21.83     0.209 HD
ENDBRANCH  32  33
ENDBRANCH  12  32
ENDBRANCH   7   8
ENDBRANCH   4   7
BRANCH   5  35
HETATM   35  C6  NDG A   1     -38.991  43.414  14.590  1.00 19.44     0.198 C 
BRANCH  35  36
HETATM   36  O6  NDG A   1     -38.793  43.138  13.207  1.00 22.44    -0.398 OA
HETATM   37  H10 NDG A   1     -37.853  43.084  13.022  1.00 22.44     0.209 HD
ENDBRANCH  35  36
ENDBRANCH   5  35
BRANCH   3  38
HETATM   38  O3  NDG A   1     -36.177  39.339  14.958  1.00 16.70    -0.348 OA
BRANCH  38  39
HETATM   39  C1  FUC A   4     -35.163  38.749  15.725  1.00 17.98     0.292 C 
HETATM   40  C2  FUC A   4     -34.817  37.378  15.129  1.00 18.98     0.204 C 
HETATM   41  C3  FUC A   4     -34.256  37.576  13.715  1.00 18.80     0.183 C 
HETATM   42  C4  FUC A   4     -33.046  38.515  13.765  1.00 19.03     0.178 C 
HETATM   43  C5  FUC A   4     -33.421  39.835  14.458  1.00 17.92     0.152 C 
HETATM   44  O5  FUC A   4     -33.993  39.561  15.759  1.00 17.36    -0.351 OA
HETATM   45  C6  FUC A   4     -32.225  40.747  14.675  1.00 17.47     0.042 C 
BRANCH  40  46
HETATM   46  O2  FUC A   4     -35.982  36.561  15.087  1.00 18.96    -0.388 OA
HETATM   47  H02 FUC A   4     -36.094  36.209  14.201  1.00 18.96     0.210 HD
ENDBRANCH  40  46
BRANCH  41  48
HETATM   48  O3  FUC A   4     -33.864  36.320  13.171  1.00 18.98    -0.390 OA
HETATM   49  H04 FUC A   4     -34.637  35.759  13.072  1.00 18.98     0.210 HD
ENDBRANCH  41  48
BRANCH  42  50
HETATM   50  O4  FUC A   4     -31.998  37.880  14.481  1.00 17.97    -0.390 OA
HETATM   51  H06 FUC A   4     -31.350  38.536  14.750  1.00 17.97     0.210 HD
ENDBRANCH  42  50
ENDBRANCH  38  39
ENDBRANCH   3  38
BRANCH   2  52
HETATM   52  N2  NDG A   1     -37.892  38.465  17.105  1.00 15.82    -0.349 N 
HETATM   53  H04 NDG A   1     -37.119  38.625  17.735  1.00 15.82     0.163 HD
HETATM   54  C7  NDG A   1     -38.559  37.314  17.147  1.00 18.26     0.214 C 
HETATM   55  O7  NDG A   1     -39.472  37.044  16.365  1.00 16.43    -0.274 OA
HETATM   56  C8  NDG A   1     -38.165  36.307  18.215  1.00 17.59     0.117 C 
ENDBRANCH   2  52
BRANCH   1  57
HETATM   57  O1  NDG A   1     -38.815  41.002  17.948  1.00 20.35    -0.369 OA
HETATM   58  H02 NDG A   1     -39.422  40.818  18.668  1.00 20.35     0.212 HD
ENDBRANCH   1  57
TORSDOF 20
BEGIN_RES TYR H  32
REMARK  3 active torsions:
REMARK  status: ('A' for Active; 'I' for Inactive)
REMARK    1  A    between atoms: CA   and  CB  
REMARK    2  A    between atoms: CB   and  CG  
REMARK    3  A    between atoms: CZ   and  OH  
ROOT
ATOM      1  CA  TYR H  32     -36.537  33.688  12.495  1.00 18.29     0.180 C 
ENDROOT
BRANCH   1   2
ATOM      2  CB  TYR H  32     -35.194  32.959  12.519  1.00 19.77     0.073 C 
BRANCH   2   3
ATOM      3  CG  TYR H  32     -34.769  32.427  13.859  1.00 22.87    -0.056 A 
ATOM      4  CD1 TYR H  32     -34.947  31.086  14.187  1.00 20.12     0.010 A 
ATOM      5  CE1 TYR H  32     -34.522  30.586  15.421  1.00 23.09     0.037 A 
ATOM      6  CZ  TYR H  32     -33.914  31.438  16.335  1.00 23.55     0.065 A 
ATOM      7  CE2 TYR H  32     -33.732  32.777  16.028  1.00 23.27     0.037 A 
ATOM      8  CD2 TYR H  32     -34.159  33.264  14.797  1.00 21.76     0.010 A 
BRANCH   6   9
ATOM      9  OH  TYR H  32     -33.478  30.947  17.551  1.00 24.63    -0.361 OA
ATOM     10  H09 TYR H  32     -32.638  31.354  17.778  1.00 24.63     0.217 HD
ENDBRANCH   6   9
ENDBRANCH   2   3
ENDBRANCH   1   2
END_RES TYR H  32
BEGIN_RES TYR H  33
REMARK  3 active torsions:
REMARK  status: ('A' for Active; 'I' for Inactive)
REMARK    4  A    between atoms: CA   and  CB  
REMARK    5  A    between atoms: CB   and  CG  
REMARK    6  A    between atoms: CZ   and  OH  
ROOT
ATOM     11  CA  TYR H  33     -35.954  36.540  10.090  1.00 16.40     0.180 C 
ENDROOT
BRANCH  11  12
ATOM     12  CB  TYR H  33     -35.592  37.970  10.478  1.00 15.75     0.073 C 
BRANCH  12  13
ATOM     13  CG  TYR H  33     -36.766  38.892  10.674  1.00 19.01    -0.056 A 
ATOM     14  CD1 TYR H  33     -37.820  38.550  11.522  1.00 16.84     0.010 A 
ATOM     15  CE1 TYR H  33     -38.894  39.425  11.722  1.00 19.32     0.037 A 
ATOM     16  CZ  TYR H  33     -38.909  40.646  11.072  1.00 19.88     0.065 A 
ATOM     17  CE2 TYR H  33     -37.873  41.006  10.225  1.00 21.27     0.037 A 
ATOM     18  CD2 TYR H  33     -36.811  40.129  10.030  1.00 18.42     0.010 A 
BRANCH  16  19
ATOM     19  OH  TYR H  33     -39.954  41.517  11.252  1.00 21.96    -0.361 OA
ATOM     20  H08 TYR H  33     -40.424  41.629  10.422  1.00 21.96     0.217 HD
ENDBRANCH  16  19
ENDBRANCH  12  13
ENDBRANCH  11  12
END_RES TYR H  33
BEGIN_RES TYR H  50
REMARK  3 active torsions:
REMARK  status: ('A' for Active; 'I' for Inactive)
REMARK    7  A    between atoms: CA   and  CB  
REMARK    8  A    between atoms: CB   and  CG  
REMARK    9  A    between atoms: CZ   and  OH  
ROOT
ATOM     21  CA  TYR H  50     -33.769  40.088   4.603  1.00 18.73     0.180 C 
ENDROOT
BRANCH  21  22
ATOM     22  CB  TYR H  50     -33.504  41.014   5.805  1.00 19.53     0.073 C 
BRANCH  22  23
ATOM     23  CG  TYR H  50     -34.547  42.076   6.110  1.00 22.78    -0.056 A 
ATOM     24  CD1 TYR H  50     -35.701  41.777   6.845  1.00 23.54     0.010 A 
ATOM     25  CE1 TYR H  50     -36.634  42.761   7.155  1.00 23.32     0.037 A 
ATOM     26  CZ  TYR H  50     -36.424  44.061   6.734  1.00 25.64     0.065 A 
ATOM     27  CE2 TYR H  50     -35.291  44.388   6.008  1.00 25.81     0.037 A 
ATOM     28  CD2 TYR H  50     -34.361  43.393   5.697  1.00 22.93     0.010 A 
BRANCH  26  29
ATOM     29  OH  TYR H  50     -37.350  45.039   7.025  1.00 26.65    -0.361 OA
ATOM     30  H09 TYR H  50     -37.333  45.227   7.965  1.00 26.65     0.217 HD
ENDBRANCH  26  29
ENDBRANCH  22  23
ENDBRANCH  21  22
END_RES TYR H  50
BEGIN_RES TRP H 105
REMARK  2 active torsions:
REMARK  status: ('A' for Active; 'I' for Inactive)
REMARK   10  A    between atoms: CA   and  CB  
REMARK   11  A    between atoms: CB   and  CG  
ROOT
ATOM     31  CA  TRP H 105     -27.730  39.492  12.437  1.00 18.07     0.181 C 
ENDROOT
BRANCH  31  32
ATOM     32  CB  TRP H 105     -27.228  40.633  11.544  1.00 18.23     0.075 C 
BRANCH  32  33
ATOM     33  CG  TRP H 105     -28.257  41.680  11.224  1.00 19.04    -0.028 A 
ATOM     34  CD1 TRP H 105     -28.700  42.035   9.983  1.00 17.14     0.096 A 
ATOM     35  NE1 TRP H 105     -29.622  43.050  10.081  1.00 18.41    -0.365 N 
ATOM     36  CE2 TRP H 105     -29.792  43.368  11.402  1.00 17.66     0.042 A 
ATOM     37  H07 TRP H 105     -30.096  43.490   9.305  1.00 18.41     0.165 HD
ATOM     38  CZ2 TRP H 105     -30.620  44.326  11.999  1.00 18.85     0.030 A 
ATOM     39  CD2 TRP H 105     -28.946  42.522  12.153  1.00 18.24    -0.002 A 
ATOM     40  CH2 TRP H 105     -30.588  44.426  13.366  1.00 17.37     0.002 A 
ATOM     41  CZ3 TRP H 105     -29.753  43.599  14.143  1.00 20.81     0.001 A 
ATOM     42  CE3 TRP H 105     -28.930  42.646  13.548  1.00 20.27     0.014 A 
ENDBRANCH  32  33
ENDBRANCH  31  32
END_RES TRP H 105
ENDMDL
MODEL 8
REMARK VINA RESULT:      -6.3      3.296      5.312
REMARK  20 active torsions:
REMARK  status: ('A' for Active; 'I' for Inactive)
REMARK    1  A    between atoms: C1_1  and  O1_2 
REMARK    2  A    between atoms: C2_3  and  N2_4 
REMARK       I    between atoms: N2_4  and  C7_13 
REMARK    3  A    between atoms: C3_5  and  O3_6 
REMARK    4  A    between atoms: O3_6  and  C1_46 
REMARK    5  A    between atoms: C4_7  and  O4_8 
REMARK    6  A    between atoms: O4_8  and  C1_19 
REMARK    7  A    between atoms: C5_9  and  C6_11 
REMARK    8  A    between atoms: C6_11  and  O6_12 
REMARK    9  A    between atoms: C2_20  and  O2_21 
REMARK   10  A    between atoms: O2_21  and  C1_33 
REMARK   11  A    between atoms: C3_22  and  O3_23 
REMARK   12  A    between atoms: C4_24  and  O4_25 
REMARK   13  A    between atoms: C5_26  and  C6_28 
REMARK   14  A    between atoms: C6_28  and  O6_29 
REMARK   15  A    between atoms: C2_34  and  O2_35 
REMARK   16  A    between atoms: C3_36  and  O3_37 
REMARK   17  A    between atoms: C4_38  and  O4_39 
REMARK   18  A    between atoms: C2_47  and  O2_48 
REMARK   19  A    between atoms: C3_49  and  O3_50 
REMARK   20  A    between atoms: C4_51  and  O4_52 
ROOT
HETATM    1  C1  NDG A   1     -36.373  44.471  20.447  1.00 18.25     0.282 C 
HETATM    2  C2  NDG A   1     -37.060  44.922  19.141  1.00 16.10     0.171 C 
HETATM    3  C3  NDG A   1     -37.065  43.791  18.105  1.00 17.07     0.183 C 
HETATM    4  C4  NDG A   1     -35.630  43.301  17.901  1.00 17.51     0.187 C 
HETATM    5  C5  NDG A   1     -35.066  42.838  19.256  1.00 19.75     0.180 C 
HETATM    6  O5  NDG A   1     -35.063  43.942  20.185  1.00 18.16    -0.349 OA
ENDROOT
BRANCH   4   7
HETATM    7  O4  NDG A   1     -35.585  42.221  16.939  1.00 18.39    -0.348 OA
BRANCH   7   8
HETATM    8  C1  GAL A   2     -34.673  42.369  15.899  1.00 19.47     0.292 C 
HETATM    9  C2  GAL A   2     -35.171  41.626  14.648  1.00 21.38     0.211 C 
HETATM   10  C3  GAL A   2     -34.174  41.852  13.512  1.00 22.16     0.183 C 
HETATM   11  C4  GAL A   2     -34.051  43.353  13.251  1.00 22.05     0.180 C 
HETATM   12  C5  GAL A   2     -33.593  44.037  14.544  1.00 19.68     0.179 C 
HETATM   13  O5  GAL A   2     -34.539  43.777  15.606  1.00 18.57    -0.348 OA
BRANCH   9  14
HETATM   14  O2  GAL A   2     -35.297  40.218  14.913  1.00 23.81    -0.346 OA
BRANCH  14  15
HETATM   15  C1  FUC A   3     -34.151  39.612  15.449  1.00 20.96     0.292 C 
HETATM   16  C2  FUC A   3     -34.553  38.523  16.447  1.00 21.55     0.204 C 
HETATM   17  C3  FUC A   3     -35.205  37.353  15.708  1.00 21.68     0.183 C 
HETATM   18  C4  FUC A   3     -34.258  36.832  14.628  1.00 23.00     0.178 C 
HETATM   19  C5  FUC A   3     -33.890  37.974  13.683  1.00 22.59     0.152 C 
HETATM   20  C6  FUC A   3     -32.876  37.553  12.638  1.00 21.54     0.042 C 
HETATM   21  O5  FUC A   3     -33.303  39.064  14.438  1.00 22.06    -0.351 OA
BRANCH  16  22
HETATM   22  O2  FUC A   3     -35.458  39.051  17.403  1.00 21.73    -0.388 OA
HETATM   23  H02 FUC A   3     -35.913  38.332  17.846  1.00 21.73     0.210 HD
ENDBRANCH  16  22
BRANCH  17  24
HETATM   24  O3  FUC A   3     -35.512  36.314  16.626  1.00 23.03    -0.390 OA
HETATM   25  H04 FUC A   3     -35.187  35.478  16.284  1.00 23.03     0.210 HD
ENDBRANCH  17  24
BRANCH  18  26
HETATM   26  O4  FUC A   3     -33.075  36.321  15.238  1.00 24.32    -0.390 OA
HETATM   27  H06 FUC A   3     -33.173  35.378  15.386  1.00 24.32     0.210 HD
ENDBRANCH  18  26
ENDBRANCH  14  15
ENDBRANCH   9  14
BRANCH  10  28
HETATM   28  O3  GAL A   2     -34.598  41.178  12.335  1.00 21.48    -0.390 OA
HETATM   29  H03 GAL A   2     -33.835  40.986  11.783  1.00 21.48     0.210 HD
ENDBRANCH  10  28
BRANCH  11  30
HETATM   30  O4  GAL A   2     -35.319  43.866  12.861  1.00 21.68    -0.390 OA
HETATM   31  H05 GAL A   2     -35.338  44.816  13.002  1.00 21.68     0.210 HD
ENDBRANCH  11  30
BRANCH  12  32
HETATM   32  C6  GAL A   2     -33.447  45.546  14.418  1.00 22.77     0.198 C 
BRANCH  32  33
HETATM   33  O6  GAL A   2     -34.181  46.227  15.425  1.00 21.83    -0.398 OA
HETATM   34  H09 GAL A   2     -35.075  45.878  15.461  1.00 21.83     0.209 HD
ENDBRANCH  32  33
ENDBRANCH  12  32
ENDBRANCH   7   8
ENDBRANCH   4   7
BRANCH   5  35
HETATM   35  C6  NDG A   1     -33.642  42.338  19.162  1.00 19.44     0.198 C 
BRANCH  35  36
HETATM   36  O6  NDG A   1     -33.600  40.993  18.695  1.00 22.44    -0.398 OA
HETATM   37  H10 NDG A   1     -34.426  40.554  18.910  1.00 22.44     0.209 HD
ENDBRANCH  35  36
ENDBRANCH   5  35
BRANCH   3  38
HETATM   38  O3  NDG A   1     -37.582  44.299  16.861  1.00 16.70    -0.348 OA
BRANCH  38  39
HETATM   39  C1  FUC A   4     -38.950  44.091  16.640  1.00 17.98     0.292 C 
HETATM   40  C2  FUC A   4     -39.414  44.991  15.487  1.00 18.98     0.204 C 
HETATM   41  C3  FUC A   4     -38.680  44.578  14.204  1.00 18.80     0.183 C 
HETATM   42  C4  FUC A   4     -38.928  43.092  13.923  1.00 19.03     0.178 C 
HETATM   43  C5  FUC A   4     -38.538  42.243  15.144  1.00 17.92     0.152 C 
HETATM   44  O5  FUC A   4     -39.227  42.730  16.320  1.00 17.36    -0.351 OA
HETATM   45  C6  FUC A   4     -38.903  40.777  14.983  1.00 17.47     0.042 C 
BRANCH  40  46
HETATM   46  O2  FUC A   4     -39.137  46.353  15.795  1.00 18.96    -0.388 OA
HETATM   47  H02 FUC A   4     -39.960  46.843  15.850  1.00 18.96     0.210 HD
ENDBRANCH  40  46
BRANCH  41  48
HETATM   48  O3  FUC A   4     -39.149  45.356  13.109  1.00 18.98    -0.390 OA
HETATM   49  H04 FUC A   4     -39.494  44.775  12.427  1.00 18.98     0.210 HD
ENDBRANCH  41  48
BRANCH  42  50
HETATM   50  O4  FUC A   4     -40.303  42.900  13.628  1.00 17.97    -0.390 OA
HETATM   51  H06 FUC A   4     -40.681  42.276  14.251  1.00 17.97     0.210 HD
ENDBRANCH  42  50
ENDBRANCH  38  39
ENDBRANCH   3  38
BRANCH   2  52
HETATM   52  N2  NDG A   1     -38.414  45.371  19.405  1.00 15.82    -0.349 N 
HETATM   53  H04 NDG A   1     -39.085  44.740  19.816  1.00 15.82     0.163 HD
HETATM   54  C7  NDG A   1     -38.769  46.619  19.104  1.00 18.26     0.214 C 
HETATM   55  O7  NDG A   1     -38.007  47.413  18.551  1.00 16.43    -0.274 OA
HETATM   56  C8  NDG A   1     -40.176  47.062  19.472  1.00 17.59     0.117 C 
ENDBRANCH   2  52
BRANCH   1  57
HETATM   57  O1  NDG A   1     -37.122  43.495  21.081  1.00 20.35    -0.369 OA
HETATM   58  H02 NDG A   1     -36.535  42.871  21.514  1.00 20.35     0.212 HD
ENDBRANCH   1  57
TORSDOF 20
BEGIN_RES TYR H  32
REMARK  3 active torsions:
REMARK  status: ('A' for Active; 'I' for Inactive)
REMARK    1  A    between atoms: CA   and  CB  
REMARK    2  A    between atoms: CB   and  CG  
REMARK    3  A    between atoms: CZ   and  OH  
ROOT
ATOM      1  CA  TYR H  32     -36.537  33.688  12.495  1.00 18.29     0.180 C 
ENDROOT
BRANCH   1   2
ATOM      2  CB  TYR H  32     -35.194  32.959  12.519  1.00 19.77     0.073 C 
BRANCH   2   3
ATOM      3  CG  TYR H  32     -34.787  32.394  13.851  1.00 22.87    -0.056 A 
ATOM      4  CD1 TYR H  32     -34.971  31.047  14.145  1.00 20.12     0.010 A 
ATOM      5  CE1 TYR H  32     -34.562  30.516  15.372  1.00 23.09     0.037 A 
ATOM      6  CZ  TYR H  32     -33.964  31.346  16.313  1.00 23.55     0.065 A 
ATOM      7  CE2 TYR H  32     -33.776  32.691  16.041  1.00 23.27     0.037 A 
ATOM      8  CD2 TYR H  32     -34.187  33.208  14.816  1.00 21.76     0.010 A 
BRANCH   6   9
ATOM      9  OH  TYR H  32     -33.543  30.825  17.523  1.00 24.63    -0.361 OA
ATOM     10  H09 TYR H  32     -33.813  31.411  18.235  1.00 24.63     0.217 HD
ENDBRANCH   6   9
ENDBRANCH   2   3
ENDBRANCH   1   2
END_RES TYR H  32
BEGIN_RES TYR H  33
REMARK  3 active torsions:
REMARK  status: ('A' for Active; 'I' for Inactive)
REMARK    4  A    between atoms: CA   and  CB  
REMARK    5  A    between atoms: CB   and  CG  
REMARK    6  A    between atoms: CZ   and  OH  
ROOT
ATOM     11  CA  TYR H  33     -35.954  36.540  10.090  1.00 16.40     0.180 C 
ENDROOT
BRANCH  11  12
ATOM     12  CB  TYR H  33     -35.592  37.970  10.478  1.00 15.75     0.073 C 
BRANCH  12  13
ATOM     13  CG  TYR H  33     -36.764  38.901  10.638  1.00 19.01    -0.056 A 
ATOM     14  CD1 TYR H  33     -37.829  38.585  11.482  1.00 16.84     0.010 A 
ATOM     15  CE1 TYR H  33     -38.901  39.468  11.648  1.00 19.32     0.037 A 
ATOM     16  CZ  TYR H  33     -38.904  40.673  10.968  1.00 19.88     0.065 A 
ATOM     17  CE2 TYR H  33     -37.856  41.008  10.124  1.00 21.27     0.037 A 
ATOM     18  CD2 TYR H  33     -36.796  40.122   9.963  1.00 18.42     0.010 A 
BRANCH  16  19
ATOM     19  OH  TYR H  33     -39.947  41.552  11.114  1.00 21.96    -0.361 OA
ATOM     20  H08 TYR H  33     -40.204  41.594  12.039  1.00 21.96     0.217 HD
ENDBRANCH  16  19
ENDBRANCH  12  13
ENDBRANCH  11  12
END_RES TYR H  33
BEGIN_RES TYR H  50
REMARK  3 active torsions:
REMARK  status: ('A' for Active; 'I' for Inactive)
REMARK    7  A    between atoms: CA   and  CB  
REMARK    8  A    between atoms: CB   and  CG  
REMARK    9  A    between atoms: CZ   and  OH  
ROOT
ATOM     21  CA  TYR H  50     -33.769  40.088   4.603  1.00 18.73     0.180 C 
ENDROOT
BRANCH  21  22
ATOM     22  CB  TYR H  50     -33.504  41.014   5.805  1.00 19.53     0.073 C 
BRANCH  22  23
ATOM     23  CG  TYR H  50     -34.538  42.088   6.099  1.00 22.78    -0.056 A 
ATOM     24  CD1 TYR H  50     -35.655  41.825   6.903  1.00 23.54     0.010 A 
ATOM     25  CE1 TYR H  50     -36.579  42.822   7.202  1.00 23.32     0.037 A 
ATOM     26  CZ  TYR H  50     -36.397  44.098   6.700  1.00 25.64     0.065 A 
ATOM     27  CE2 TYR H  50     -35.301  44.387   5.904  1.00 25.81     0.037 A 
ATOM     28  CD2 TYR H  50     -34.380  43.380   5.606  1.00 22.93     0.010 A 
BRANCH  26  29
ATOM     29  OH  TYR H  50     -37.314  45.087   6.979  1.00 26.65    -0.361 OA
ATOM     30  H09 TYR H  50     -37.329  45.722   6.259  1.00 26.65     0.217 HD
ENDBRANCH  26  29
ENDBRANCH  22  23
ENDBRANCH  21  22
END_RES TYR H  50
BEGIN_RES TRP H 105
REMARK  2 active torsions:
REMARK  status: ('A' for Active; 'I' for Inactive)
REMARK   10  A    between atoms: CA   and  CB  
REMARK   11  A    between atoms: CB   and  CG  
ROOT
ATOM     31  CA  TRP H 105     -27.730  39.492  12.437  1.00 18.07     0.181 C 
ENDROOT
BRANCH  31  32
ATOM     32  CB  TRP H 105     -27.228  40.633  11.544  1.00 18.23     0.075 C 
BRANCH  32  33
ATOM     33  CG  TRP H 105     -28.248  41.697  11.251  1.00 19.04    -0.028 A 
ATOM     34  CD1 TRP H 105     -28.756  42.024  10.028  1.00 17.14     0.096 A 
ATOM     35  NE1 TRP H 105     -29.644  43.067  10.146  1.00 18.41    -0.365 N 
ATOM     36  CE2 TRP H 105     -29.726  43.431  11.464  1.00 17.66     0.042 A 
ATOM     37  H07 TRP H 105     -30.152  43.495   9.386  1.00 18.41     0.165 HD
ATOM     38  CZ2 TRP H 105     -30.491  44.430  12.077  1.00 18.85     0.030 A 
ATOM     39  CD2 TRP H 105     -28.857  42.587  12.191  1.00 18.24    -0.002 A 
ATOM     40  CH2 TRP H 105     -30.374  44.573  13.436  1.00 17.37     0.002 A 
ATOM     41  CZ3 TRP H 105     -29.516  43.748  14.188  1.00 20.81     0.001 A 
ATOM     42  CE3 TRP H 105     -28.755  42.754  13.578  1.00 20.27     0.014 A 
ENDBRANCH  32  33
ENDBRANCH  31  32
END_RES TRP H 105
ENDMDL
MODEL 9
REMARK VINA RESULT:      -6.2      2.155      5.361
REMARK  20 active torsions:
REMARK  status: ('A' for Active; 'I' for Inactive)
REMARK    1  A    between atoms: C1_1  and  O1_2 
REMARK    2  A    between atoms: C2_3  and  N2_4 
REMARK       I    between atoms: N2_4  and  C7_13 
REMARK    3  A    between atoms: C3_5  and  O3_6 
REMARK    4  A    between atoms: O3_6  and  C1_46 
REMARK    5  A    between atoms: C4_7  and  O4_8 
REMARK    6  A    between atoms: O4_8  and  C1_19 
REMARK    7  A    between atoms: C5_9  and  C6_11 
REMARK    8  A    between atoms: C6_11  and  O6_12 
REMARK    9  A    between atoms: C2_20  and  O2_21 
REMARK   10  A    between atoms: O2_21  and  C1_33 
REMARK   11  A    between atoms: C3_22  and  O3_23 
REMARK   12  A    between atoms: C4_24  and  O4_25 
REMARK   13  A    between atoms: C5_26  and  C6_28 
REMARK   14  A    between atoms: C6_28  and  O6_29 
REMARK   15  A    between atoms: C2_34  and  O2_35 
REMARK   16  A    between atoms: C3_36  and  O3_37 
REMARK   17  A    between atoms: C4_38  and  O4_39 
REMARK   18  A    between atoms: C2_47  and  O2_48 
REMARK   19  A    between atoms: C3_49  and  O3_50 
REMARK   20  A    between atoms: C4_51  and  O4_52 
ROOT
HETATM    1  C1  NDG A   1     -40.938  43.642  14.832  1.00 18.25     0.282 C 
HETATM    2  C2  NDG A   1     -39.737  43.655  13.864  1.00 16.10     0.171 C 
HETATM    3  C3  NDG A   1     -38.900  42.378  14.011  1.00 17.07     0.183 C 
HETATM    4  C4  NDG A   1     -38.497  42.218  15.479  1.00 17.51     0.187 C 
HETATM    5  C5  NDG A   1     -39.771  42.174  16.340  1.00 19.75     0.180 C 
HETATM    6  O5  NDG A   1     -40.509  43.404  16.182  1.00 18.16    -0.349 OA
ENDROOT
BRANCH   4   7
HETATM    7  O4  NDG A   1     -37.715  41.016  15.671  1.00 18.39    -0.348 OA
BRANCH   7   8
HETATM    8  C1  GAL A   2     -38.093  39.915  14.909  1.00 19.47     0.292 C 
HETATM    9  C2  GAL A   2     -37.116  38.751  15.139  1.00 21.38     0.211 C 
HETATM   10  C3  GAL A   2     -37.589  37.544  14.329  1.00 22.16     0.183 C 
HETATM   11  C4  GAL A   2     -39.004  37.174  14.771  1.00 22.05     0.180 C 
HETATM   12  C5  GAL A   2     -39.916  38.387  14.554  1.00 19.68     0.179 C 
HETATM   13  O5  GAL A   2     -39.423  39.519  15.307  1.00 18.57    -0.348 OA
BRANCH   9  14
HETATM   14  O2  GAL A   2     -35.786  39.119  14.734  1.00 23.81    -0.346 OA
BRANCH  14  15
HETATM   15  C1  FUC A   3     -34.756  38.539  15.491  1.00 20.96     0.292 C 
HETATM   16  C2  FUC A   3     -33.597  38.137  14.576  1.00 21.55     0.204 C 
HETATM   17  C3  FUC A   3     -32.910  39.388  14.024  1.00 21.68     0.183 C 
HETATM   18  C4  FUC A   3     -32.456  40.279  15.180  1.00 23.00     0.178 C 
HETATM   19  C5  FUC A   3     -33.660  40.624  16.055  1.00 22.59     0.152 C 
HETATM   20  C6  FUC A   3     -33.270  41.432  17.276  1.00 21.54     0.042 C 
HETATM   21  O5  FUC A   3     -34.288  39.406  16.526  1.00 22.06    -0.351 OA
BRANCH  16  22
HETATM   22  O2  FUC A   3     -34.079  37.342  13.503  1.00 21.73    -0.388 OA
HETATM   23  H02 FUC A   3     -33.991  36.413  13.728  1.00 21.73     0.210 HD
ENDBRANCH  16  22
BRANCH  17  24
HETATM   24  O3  FUC A   3     -31.791  39.013  13.233  1.00 23.03    -0.390 OA
HETATM   25  H04 FUC A   3     -30.996  39.045  13.769  1.00 23.03     0.210 HD
ENDBRANCH  17  24
BRANCH  18  26
HETATM   26  O4  FUC A   3     -31.484  39.590  15.960  1.00 24.32    -0.390 OA
HETATM   27  H06 FUC A   3     -31.106  40.191  16.606  1.00 24.32     0.210 HD
ENDBRANCH  18  26
ENDBRANCH  14  15
ENDBRANCH   9  14
BRANCH  10  28
HETATM   28  O3  GAL A   2     -36.709  36.443  14.513  1.00 21.48    -0.390 OA
HETATM   29  H03 GAL A   2     -36.423  36.114  13.658  1.00 21.48     0.210 HD
ENDBRANCH  10  28
BRANCH  11  30
HETATM   30  O4  GAL A   2     -38.989  36.825  16.150  1.00 21.68    -0.390 OA
HETATM   31  H05 GAL A   2     -39.888  36.678  16.454  1.00 21.68     0.210 HD
ENDBRANCH  11  30
BRANCH  12  32
HETATM   32  C6  GAL A   2     -41.358  38.149  14.974  1.00 22.77     0.198 C 
BRANCH  32  33
HETATM   33  O6  GAL A   2     -41.687  36.767  14.953  1.00 21.83    -0.398 OA
HETATM   34  H09 GAL A   2     -42.370  36.591  15.603  1.00 21.83     0.209 HD
ENDBRANCH  32  33
ENDBRANCH  12  32
ENDBRANCH   7   8
ENDBRANCH   4   7
BRANCH   5  35
HETATM   35  C6  NDG A   1     -39.479  42.023  17.816  1.00 19.44     0.198 C 
BRANCH  35  36
HETATM   36  O6  NDG A   1     -39.270  40.657  18.161  1.00 22.44    -0.398 OA
HETATM   37  H10 NDG A   1     -38.372  40.404  17.938  1.00 22.44     0.209 HD
ENDBRANCH  35  36
ENDBRANCH   5  35
BRANCH   3  38
HETATM   38  O3  NDG A   1     -37.718  42.498  13.197  1.00 16.70    -0.348 OA
BRANCH  38  39
HETATM   39  C1  FUC A   4     -36.890  43.591  13.483  1.00 17.98     0.292 C 
HETATM   40  C2  FUC A   4     -35.429  43.121  13.502  1.00 18.98     0.204 C 
HETATM   41  C3  FUC A   4     -35.049  42.620  12.102  1.00 18.80     0.183 C 
HETATM   42  C4  FUC A   4     -35.295  43.727  11.071  1.00 19.03     0.178 C 
HETATM   43  C5  FUC A   4     -36.746  44.229  11.162  1.00 17.92     0.152 C 
HETATM   44  O5  FUC A   4     -37.042  44.630  12.520  1.00 17.36    -0.351 OA
HETATM   45  C6  FUC A   4     -37.009  45.431  10.270  1.00 17.47     0.042 C 
BRANCH  40  46
HETATM   46  O2  FUC A   4     -35.268  42.080  14.458  1.00 18.96    -0.388 OA
HETATM   47  H02 FUC A   4     -35.499  41.239  14.058  1.00 18.96     0.210 HD
ENDBRANCH  40  46
BRANCH  41  48
HETATM   48  O3  FUC A   4     -33.676  42.245  12.081  1.00 18.98    -0.390 OA
HETATM   49  H04 FUC A   4     -33.354  42.260  11.177  1.00 18.98     0.210 HD
ENDBRANCH  41  48
BRANCH  42  50
HETATM   50  O4  FUC A   4     -34.401  44.801  11.324  1.00 17.97    -0.390 OA
HETATM   51  H06 FUC A   4     -34.771  45.615  10.973  1.00 17.97     0.210 HD
ENDBRANCH  42  50
ENDBRANCH  38  39
ENDBRANCH   3  38
BRANCH   2  52
HETATM   52  N2  NDG A   1     -40.189  43.808  12.493  1.00 15.82    -0.349 N 
HETATM   53  H04 NDG A   1     -40.391  42.992  11.934  1.00 15.82     0.163 HD
HETATM   54  C7  NDG A   1     -40.335  45.026  11.975  1.00 18.26     0.214 C 
HETATM   55  O7  NDG A   1     -40.049  46.051  12.594  1.00 16.43    -0.274 OA
HETATM   56  C8  NDG A   1     -40.884  45.131  10.562  1.00 17.59     0.117 C 
ENDBRANCH   2  52
BRANCH   1  57
HETATM   57  O1  NDG A   1     -41.841  42.656  14.478  1.00 20.35    -0.369 OA
HETATM   58  H02 NDG A   1     -42.622  43.060  14.093  1.00 20.35     0.212 HD
ENDBRANCH   1  57
TORSDOF 20
BEGIN_RES TYR H  32
REMARK  3 active torsions:
REMARK  status: ('A' for Active; 'I' for Inactive)
REMARK    1  A    between atoms: CA   and  CB  
REMARK    2  A    between atoms: CB   and  CG  
REMARK    3  A    between atoms: CZ   and  OH  
ROOT
ATOM      1  CA  TYR H  32     -36.537  33.688  12.495  1.00 18.29     0.180 C 
ENDROOT
BRANCH   1   2
ATOM      2  CB  TYR H  32     -35.194  32.959  12.519  1.00 19.77     0.073 C 
BRANCH   2   3
ATOM      3  CG  TYR H  32     -34.783  32.401  13.853  1.00 22.87    -0.056 A 
ATOM      4  CD1 TYR H  32     -34.209  33.214  14.824  1.00 20.12     0.010 A 
ATOM      5  CE1 TYR H  32     -33.857  32.701  16.076  1.00 23.09     0.037 A 
ATOM      6  CZ  TYR H  32     -34.083  31.358  16.355  1.00 23.55     0.065 A 
ATOM      7  CE2 TYR H  32     -34.650  30.531  15.399  1.00 23.27     0.037 A 
ATOM      8  CD2 TYR H  32     -34.996  31.053  14.156  1.00 21.76     0.010 A 
BRANCH   6   9
ATOM      9  OH  TYR H  32     -33.752  30.847  17.596  1.00 24.63    -0.361 OA
ATOM     10  H09 TYR H  32     -34.487  30.971  18.201  1.00 24.63     0.217 HD
ENDBRANCH   6   9
ENDBRANCH   2   3
ENDBRANCH   1   2
END_RES TYR H  32
BEGIN_RES TYR H  33
REMARK  3 active torsions:
REMARK  status: ('A' for Active; 'I' for Inactive)
REMARK    4  A    between atoms: CA   and  CB  
REMARK    5  A    between atoms: CB   and  CG  
REMARK    6  A    between atoms: CZ   and  OH  
ROOT
ATOM     11  CA  TYR H  33     -35.954  36.540  10.090  1.00 16.40     0.180 C 
ENDROOT
BRANCH  11  12
ATOM     12  CB  TYR H  33     -35.592  37.970  10.478  1.00 15.75     0.073 C 
BRANCH  12  13
ATOM     13  CG  TYR H  33     -36.759  38.916  10.580  1.00 19.01    -0.056 A 
ATOM     14  CD1 TYR H  33     -36.768  40.130   9.893  1.00 16.84     0.010 A 
ATOM     15  CE1 TYR H  33     -37.868  40.991   9.970  1.00 19.32     0.037 A 
ATOM     16  CZ  TYR H  33     -38.964  40.632  10.735  1.00 19.88     0.065 A 
ATOM     17  CE2 TYR H  33     -38.976  39.430  11.426  1.00 21.27     0.037 A 
ATOM     18  CD2 TYR H  33     -37.876  38.582  11.347  1.00 18.42     0.010 A 
BRANCH  16  19
ATOM     19  OH  TYR H  33     -40.051  41.463  10.827  1.00 21.96    -0.361 OA
ATOM     20  H08 TYR H  33     -39.761  42.377  10.782  1.00 21.96     0.217 HD
ENDBRANCH  16  19
ENDBRANCH  12  13
ENDBRANCH  11  12
END_RES TYR H  33
BEGIN_RES TYR H  50
REMARK  3 active torsions:
REMARK  status: ('A' for Active; 'I' for Inactive)
REMARK    7  A    between atoms: CA   and  CB  
REMARK    8  A    between atoms: CB   and  CG  
REMARK    9  A    between atoms: CZ   and  OH  
ROOT
ATOM     21  CA  TYR H  50     -33.769  40.088   4.603  1.00 18.73     0.180 C 
ENDROOT
BRANCH  21  22
ATOM     22  CB  TYR H  50     -33.504  41.014   5.805  1.00 19.53     0.073 C 
BRANCH  22  23
ATOM     23  CG  TYR H  50     -34.503  42.131   6.058  1.00 22.78    -0.056 A 
ATOM     24  CD1 TYR H  50     -35.657  41.918   6.823  1.00 23.54     0.010 A 
ATOM     25  CE1 TYR H  50     -36.550  42.952   7.085  1.00 23.32     0.037 A 
ATOM     26  CZ  TYR H  50     -36.298  44.218   6.586  1.00 25.64     0.065 A 
ATOM     27  CE2 TYR H  50     -35.163  44.458   5.828  1.00 25.81     0.037 A 
ATOM     28  CD2 TYR H  50     -34.274  43.413   5.567  1.00 22.93     0.010 A 
BRANCH  26  29
ATOM     29  OH  TYR H  50     -37.183  45.244   6.828  1.00 26.65    -0.361 OA
ATOM     30  H09 TYR H  50     -36.740  45.941   7.318  1.00 26.65     0.217 HD
ENDBRANCH  26  29
ENDBRANCH  22  23
ENDBRANCH  21  22
END_RES TYR H  50
BEGIN_RES TRP H 105
REMARK  2 active torsions:
REMARK  status: ('A' for Active; 'I' for Inactive)
REMARK   10  A    between atoms: CA   and  CB  
REMARK   11  A    between atoms: CB   and  CG  
ROOT
ATOM     31  CA  TRP H 105     -27.730  39.492  12.437  1.00 18.07     0.181 C 
ENDROOT
BRANCH  31  32
ATOM     32  CB  TRP H 105     -27.228  40.633  11.544  1.00 18.23     0.075 C 
BRANCH  32  33
ATOM     33  CG  TRP H 105     -28.258  41.678  11.220  1.00 19.04    -0.028 A 
ATOM     34  CD1 TRP H 105     -28.702  42.027   9.978  1.00 17.14     0.096 A 
ATOM     35  NE1 TRP H 105     -29.625  43.042  10.073  1.00 18.41    -0.365 N 
ATOM     36  CE2 TRP H 105     -29.795  43.365  11.392  1.00 17.66     0.042 A 
ATOM     37  H07 TRP H 105     -30.100  43.478   9.296  1.00 18.41     0.165 HD
ATOM     38  CZ2 TRP H 105     -30.623  44.325  11.986  1.00 18.85     0.030 A 
ATOM     39  CD2 TRP H 105     -28.947  42.523  12.147  1.00 18.24    -0.002 A 
ATOM     40  CH2 TRP H 105     -30.590  44.431  13.353  1.00 17.37     0.002 A 
ATOM     41  CZ3 TRP H 105     -29.754  43.607  14.133  1.00 20.81     0.001 A 
ATOM     42  CE3 TRP H 105     -28.931  42.652  13.541  1.00 20.27     0.014 A 
ENDBRANCH  32  33
ENDBRANCH  31  32
END_RES TRP H 105
ENDMDL
MODEL 10
REMARK VINA RESULT:      -6.2      2.393      5.291
REMARK  20 active torsions:
REMARK  status: ('A' for Active; 'I' for Inactive)
REMARK    1  A    between atoms: C1_1  and  O1_2 
REMARK    2  A    between atoms: C2_3  and  N2_4 
REMARK       I    between atoms: N2_4  and  C7_13 
REMARK    3  A    between atoms: C3_5  and  O3_6 
REMARK    4  A    between atoms: O3_6  and  C1_46 
REMARK    5  A    between atoms: C4_7  and  O4_8 
REMARK    6  A    between atoms: O4_8  and  C1_19 
REMARK    7  A    between atoms: C5_9  and  C6_11 
REMARK    8  A    between atoms: C6_11  and  O6_12 
REMARK    9  A    between atoms: C2_20  and  O2_21 
REMARK   10  A    between atoms: O2_21  and  C1_33 
REMARK   11  A    between atoms: C3_22  and  O3_23 
REMARK   12  A    between atoms: C4_24  and  O4_25 
REMARK   13  A    between atoms: C5_26  and  C6_28 
REMARK   14  A    between atoms: C6_28  and  O6_29 
REMARK   15  A    between atoms: C2_34  and  O2_35 
REMARK   16  A    between atoms: C3_36  and  O3_37 
REMARK   17  A    between atoms: C4_38  and  O4_39 
REMARK   18  A    between atoms: C2_47  and  O2_48 
REMARK   19  A    between atoms: C3_49  and  O3_50 
REMARK   20  A    between atoms: C4_51  and  O4_52 
ROOT
HETATM    1  C1  NDG A   1     -39.467  38.384  16.856  1.00 18.25     0.282 C 
HETATM    2  C2  NDG A   1     -38.941  39.743  17.365  1.00 16.10     0.171 C 
HETATM    3  C3  NDG A   1     -37.496  39.978  16.907  1.00 17.07     0.183 C 
HETATM    4  C4  NDG A   1     -36.638  38.789  17.346  1.00 17.51     0.187 C 
HETATM    5  C5  NDG A   1     -37.231  37.502  16.746  1.00 19.75     0.180 C 
HETATM    6  O5  NDG A   1     -38.579  37.317  17.225  1.00 18.16    -0.349 OA
ENDROOT
BRANCH   4   7
HETATM    7  O4  NDG A   1     -35.266  38.959  16.923  1.00 18.39    -0.348 OA
BRANCH   7   8
HETATM    8  C1  GAL A   2     -35.041  38.907  15.551  1.00 19.47     0.292 C 
HETATM    9  C2  GAL A   2     -34.185  40.105  15.109  1.00 21.38     0.211 C 
HETATM   10  C3  GAL A   2     -33.914  39.991  13.609  1.00 22.16     0.183 C 
HETATM   11  C4  GAL A   2     -33.198  38.668  13.334  1.00 22.05     0.180 C 
HETATM   12  C5  GAL A   2     -34.084  37.522  13.834  1.00 19.68     0.179 C 
HETATM   13  O5  GAL A   2     -34.348  37.677  15.247  1.00 18.57    -0.348 OA
BRANCH   9  14
HETATM   14  O2  GAL A   2     -34.863  41.343  15.388  1.00 23.81    -0.346 OA
BRANCH  14  15
HETATM   15  C1  FUC A   3     -35.137  42.135  14.263  1.00 20.96     0.292 C 
HETATM   16  C2  FUC A   3     -36.631  42.463  14.205  1.00 21.55     0.204 C 
HETATM   17  C3  FUC A   3     -37.002  43.409  15.348  1.00 21.68     0.183 C 
HETATM   18  C4  FUC A   3     -36.129  44.662  15.284  1.00 23.00     0.178 C 
HETATM   19  C5  FUC A   3     -34.657  44.255  15.330  1.00 22.59     0.152 C 
HETATM   20  C6  FUC A   3     -33.727  45.442  15.177  1.00 21.54     0.042 C 
HETATM   21  O5  FUC A   3     -34.368  43.338  14.245  1.00 22.06    -0.351 OA
BRANCH  16  22
HETATM   22  O2  FUC A   3     -37.394  41.270  14.304  1.00 21.73    -0.388 OA
HETATM   23  H02 FUC A   3     -38.307  41.453  14.073  1.00 21.73     0.210 HD
ENDBRANCH  16  22
BRANCH  17  24
HETATM   24  O3  FUC A   3     -38.372  43.769  15.250  1.00 23.03    -0.390 OA
HETATM   25  H04 FUC A   3     -38.527  44.579  15.741  1.00 23.03     0.210 HD
ENDBRANCH  17  24
BRANCH  18  26
HETATM   26  O4  FUC A   3     -36.389  45.363  14.072  1.00 24.32    -0.390 OA
HETATM   27  H06 FUC A   3     -35.567  45.717  13.724  1.00 24.32     0.210 HD
ENDBRANCH  18  26
ENDBRANCH  14  15
ENDBRANCH   9  14
BRANCH  10  28
HETATM   28  O3  GAL A   2     -33.125  41.083  13.158  1.00 21.48    -0.390 OA
HETATM   29  H03 GAL A   2     -33.692  41.744  12.755  1.00 21.48     0.210 HD
ENDBRANCH  10  28
BRANCH  11  30
HETATM   30  O4  GAL A   2     -31.957  38.654  14.029  1.00 21.68    -0.390 OA
HETATM   31  H05 GAL A   2     -32.015  39.222  14.801  1.00 21.68     0.210 HD
ENDBRANCH  11  30
BRANCH  12  32
HETATM   32  C6  GAL A   2     -33.471  36.144  13.630  1.00 22.77     0.198 C 
BRANCH  32  33
HETATM   33  O6  GAL A   2     -32.646  36.106  12.475  1.00 21.83    -0.398 OA
HETATM   34  H09 GAL A   2     -31.773  36.437  12.694  1.00 21.83     0.209 HD
ENDBRANCH  32  33
ENDBRANCH  12  32
ENDBRANCH   7   8
ENDBRANCH   4   7
BRANCH   5  35
HETATM   35  C6  NDG A   1     -36.454  36.262  17.128  1.00 19.44     0.198 C 
BRANCH  35  36
HETATM   36  O6  NDG A   1     -36.210  35.438  15.993  1.00 22.44    -0.398 OA
HETATM   37  H10 NDG A   1     -36.140  34.523  16.270  1.00 22.44     0.209 HD
ENDBRANCH  35  36
ENDBRANCH   5  35
BRANCH   3  38
HETATM   38  O3  NDG A   1     -37.002  41.182  17.521  1.00 16.70    -0.348 OA
BRANCH  38  39
HETATM   39  C1  FUC A   4     -36.752  41.106  18.897  1.00 17.98     0.292 C 
HETATM   40  C2  FUC A   4     -35.405  41.775  19.200  1.00 18.98     0.204 C 
HETATM   41  C3  FUC A   4     -35.495  43.264  18.840  1.00 18.80     0.183 C 
HETATM   42  C4  FUC A   4     -36.655  43.912  19.602  1.00 19.03     0.178 C 
HETATM   43  C5  FUC A   4     -37.962  43.145  19.341  1.00 17.92     0.152 C 
HETATM   44  O5  FUC A   4     -37.779  41.743  19.652  1.00 17.36    -0.351 OA
HETATM   45  C6  FUC A   4     -39.119  43.647  20.189  1.00 17.47     0.042 C 
BRANCH  40  46
HETATM   46  O2  FUC A   4     -34.373  41.148  18.448  1.00 18.96    -0.388 OA
HETATM   47  H02 FUC A   4     -34.724  40.855  17.603  1.00 18.96     0.210 HD
ENDBRANCH  40  46
BRANCH  41  48
HETATM   48  O3  FUC A   4     -34.276  43.917  19.179  1.00 18.98    -0.390 OA
HETATM   49  H04 FUC A   4     -34.459  44.824  19.434  1.00 18.98     0.210 HD
ENDBRANCH  41  48
BRANCH  42  50
HETATM   50  O4  FUC A   4     -36.362  43.896  20.991  1.00 17.97    -0.390 OA
HETATM   51  H06 FUC A   4     -35.575  44.420  21.158  1.00 17.97     0.210 HD
ENDBRANCH  42  50
ENDBRANCH  38  39
ENDBRANCH   3  38
BRANCH   2  52
HETATM   52  N2  NDG A   1     -39.797  40.823  16.913  1.00 15.82    -0.349 N 
HETATM   53  H04 NDG A   1     -39.665  41.222  15.995  1.00 15.82     0.163 HD
HETATM   54  C7  NDG A   1     -40.757  41.287  17.711  1.00 18.26     0.214 C 
HETATM   55  O7  NDG A   1     -40.925  40.875  18.859  1.00 16.43    -0.274 OA
HETATM   56  C8  NDG A   1     -41.674  42.366  17.159  1.00 17.59     0.117 C 
ENDBRANCH   2  52
BRANCH   1  57
HETATM   57  O1  NDG A   1     -39.594  38.394  15.479  1.00 20.35    -0.369 OA
HETATM   58  H02 NDG A   1     -39.846  39.273  15.186  1.00 20.35     0.212 HD
ENDBRANCH   1  57
TORSDOF 20
BEGIN_RES TYR H  32
REMARK  3 active torsions:
REMARK  status: ('A' for Active; 'I' for Inactive)
REMARK    1  A    between atoms: CA   and  CB  
REMARK    2  A    between atoms: CB   and  CG  
REMARK    3  A    between atoms: CZ   and  OH  
ROOT
ATOM      1  CA  TYR H  32     -36.537  33.688  12.495  1.00 18.29     0.180 C 
ENDROOT
BRANCH   1   2
ATOM      2  CB  TYR H  32     -35.194  32.959  12.519  1.00 19.77     0.073 C 
BRANCH   2   3
ATOM      3  CG  TYR H  32     -34.814  32.343  13.836  1.00 22.87    -0.056 A 
ATOM      4  CD1 TYR H  32     -34.135  33.078  14.803  1.00 20.12     0.010 A 
ATOM      5  CE1 TYR H  32     -33.811  32.514  16.040  1.00 23.09     0.037 A 
ATOM      6  CZ  TYR H  32     -34.171  31.200  16.310  1.00 23.55     0.065 A 
ATOM      7  CE2 TYR H  32     -34.845  30.449  15.359  1.00 23.27     0.037 A 
ATOM      8  CD2 TYR H  32     -35.162  31.021  14.131  1.00 21.76     0.010 A 
BRANCH   6   9
ATOM      9  OH  TYR H  32     -33.868  30.640  17.537  1.00 24.63    -0.361 OA
ATOM     10  H09 TYR H  32     -33.458  31.302  18.099  1.00 24.63     0.217 HD
ENDBRANCH   6   9
ENDBRANCH   2   3
ENDBRANCH   1   2
END_RES TYR H  32
BEGIN_RES TYR H  33
REMARK  3 active torsions:
REMARK  status: ('A' for Active; 'I' for Inactive)
REMARK    4  A    between atoms: CA   and  CB  
REMARK    5  A    between atoms: CB   and  CG  
REMARK    6  A    between atoms: CZ   and  OH  
ROOT
ATOM     11  CA  TYR H  33     -35.954  36.540  10.090  1.00 16.40     0.180 C 
ENDROOT
BRANCH  11  12
ATOM     12  CB  TYR H  33     -35.592  37.970  10.478  1.00 15.75     0.073 C 
BRANCH  12  13
ATOM     13  CG  TYR H  33     -36.767  38.881  10.716  1.00 19.01    -0.056 A 
ATOM     14  CD1 TYR H  33     -37.833  38.489  11.526  1.00 16.84     0.010 A 
ATOM     15  CE1 TYR H  33     -38.908  39.352  11.765  1.00 19.32     0.037 A 
ATOM     16  CZ  TYR H  33     -38.912  40.612  11.194  1.00 19.88     0.065 A 
ATOM     17  CE2 TYR H  33     -37.863  41.023  10.386  1.00 21.27     0.037 A 
ATOM     18  CD2 TYR H  33     -36.800  40.156  10.151  1.00 18.42     0.010 A 
BRANCH  16  19
ATOM     19  OH  TYR H  33     -39.958  41.472  11.414  1.00 21.96    -0.361 OA
ATOM     20  H08 TYR H  33     -39.665  42.376  11.272  1.00 21.96     0.217 HD
ENDBRANCH  16  19
ENDBRANCH  12  13
ENDBRANCH  11  12
END_RES TYR H  33
BEGIN_RES TYR H  50
REMARK  3 active torsions:
REMARK  status: ('A' for Active; 'I' for Inactive)
REMARK    7  A    between atoms: CA   and  CB  
REMARK    8  A    between atoms: CB   and  CG  
REMARK    9  A    between atoms: CZ   and  OH  
ROOT
ATOM     21  CA  TYR H  50     -33.769  40.088   4.603  1.00 18.73     0.180 C 
ENDROOT
BRANCH  21  22
ATOM     22  CB  TYR H  50     -33.504  41.014   5.805  1.00 19.53     0.073 C 
BRANCH  22  23
ATOM     23  CG  TYR H  50     -34.572  42.042   6.142  1.00 22.78    -0.056 A 
ATOM     24  CD1 TYR H  50     -35.600  41.756   7.048  1.00 23.54     0.010 A 
ATOM     25  CE1 TYR H  50     -36.553  42.713   7.383  1.00 23.32     0.037 A 
ATOM     26  CZ  TYR H  50     -36.488  43.972   6.816  1.00 25.64     0.065 A 
ATOM     27  CE2 TYR H  50     -35.480  44.285   5.918  1.00 25.81     0.037 A 
ATOM     28  CD2 TYR H  50     -34.530  43.317   5.584  1.00 22.93     0.010 A 
BRANCH  26  29
ATOM     29  OH  TYR H  50     -37.435  44.921   7.131  1.00 26.65    -0.361 OA
ATOM     30  H09 TYR H  50     -37.002  45.706   7.474  1.00 26.65     0.217 HD
ENDBRANCH  26  29
ENDBRANCH  22  23
ENDBRANCH  21  22
END_RES TYR H  50
BEGIN_RES TRP H 105
REMARK  2 active torsions:
REMARK  status: ('A' for Active; 'I' for Inactive)
REMARK   10  A    between atoms: CA   and  CB  
REMARK   11  A    between atoms: CB   and  CG  
ROOT
ATOM     31  CA  TRP H 105     -27.730  39.492  12.437  1.00 18.07     0.181 C 
ENDROOT
BRANCH  31  32
ATOM     32  CB  TRP H 105     -27.228  40.633  11.544  1.00 18.23     0.075 C 
BRANCH  32  33
ATOM     33  CG  TRP H 105     -28.254  41.686  11.233  1.00 19.04    -0.028 A 
ATOM     34  CD1 TRP H 105     -28.700  42.048   9.995  1.00 17.14     0.096 A 
ATOM     35  NE1 TRP H 105     -29.617  43.067  10.102  1.00 18.41    -0.365 N 
ATOM     36  CE2 TRP H 105     -29.782  43.379  11.425  1.00 17.66     0.042 A 
ATOM     37  H07 TRP H 105     -30.092  43.513   9.330  1.00 18.41     0.165 HD
ATOM     38  CZ2 TRP H 105     -30.604  44.337  12.030  1.00 18.85     0.030 A 
ATOM     39  CD2 TRP H 105     -28.936  42.526  12.169  1.00 18.24    -0.002 A 
ATOM     40  CH2 TRP H 105     -30.567  44.430  13.397  1.00 17.37     0.002 A 
ATOM     41  CZ3 TRP H 105     -29.733  43.595  14.167  1.00 20.81     0.001 A 
ATOM     42  CE3 TRP H 105     -28.916  42.642  13.564  1.00 20.27     0.014 A 
ENDBRANCH  32  33
ENDBRANCH  31  32
END_RES TRP H 105
ENDMDL
