MODEL 1
REMARK VINA RESULT:      -7.6      0.000      0.000
REMARK  20 active torsions:
REMARK  status: ('A' for Active; 'I' for Inactive)
REMARK    1  A    between atoms: C1_1  and  O1_2 
REMARK    2  A    between atoms: C2_3  and  N2_4 
REMARK       I    between atoms: N2_4  and  C7_13 
REMARK    3  A    between atoms: C3_5  and  O3_6 
REMARK    4  A    between atoms: O3_6  and  C1_46 
REMARK    5  A    between atoms: C4_7  and  O4_8 
REMARK    6  A    between atoms: O4_8  and  C1_19 
REMARK    7  A    between atoms: C5_9  and  C6_11 
REMARK    8  A    between atoms: C6_11  and  O6_12 
REMARK    9  A    between atoms: C2_20  and  O2_21 
REMARK   10  A    between atoms: O2_21  and  C1_33 
REMARK   11  A    between atoms: C3_22  and  O3_23 
REMARK   12  A    between atoms: C4_24  and  O4_25 
REMARK   13  A    between atoms: C5_26  and  C6_28 
REMARK   14  A    between atoms: C6_28  and  O6_29 
REMARK   15  A    between atoms: C2_34  and  O2_35 
REMARK   16  A    between atoms: C3_36  and  O3_37 
REMARK   17  A    between atoms: C4_38  and  O4_39 
REMARK   18  A    between atoms: C2_47  and  O2_48 
REMARK   19  A    between atoms: C3_49  and  O3_50 
REMARK   20  A    between atoms: C4_51  and  O4_52 
ROOT
HETATM    1  C1  NDG A   1     -36.562  44.454  12.815  1.00 18.25     0.282 C 
HETATM    2  C2  NDG A   1     -35.737  43.175  13.068  1.00 16.10     0.171 C 
HETATM    3  C3  NDG A   1     -36.560  42.135  13.838  1.00 17.07     0.183 C 
HETATM    4  C4  NDG A   1     -37.095  42.778  15.120  1.00 17.51     0.187 C 
HETATM    5  C5  NDG A   1     -37.933  44.012  14.743  1.00 19.75     0.180 C 
HETATM    6  O5  NDG A   1     -37.108  44.966  14.041  1.00 18.16    -0.349 OA
ENDROOT
BRANCH   4   7
HETATM    7  O4  NDG A   1     -37.892  41.837  15.876  1.00 18.39    -0.348 OA
BRANCH   7   8
HETATM    8  C1  GAL A   2     -37.671  41.817  17.249  1.00 19.47     0.292 C 
HETATM    9  C2  GAL A   2     -37.175  40.429  17.686  1.00 21.38     0.211 C 
HETATM   10  C3  GAL A   2     -36.894  40.457  19.188  1.00 22.16     0.183 C 
HETATM   11  C4  GAL A   2     -35.847  41.534  19.477  1.00 22.05     0.180 C 
HETATM   12  C5  GAL A   2     -36.386  42.881  18.981  1.00 19.68     0.179 C 
HETATM   13  O5  GAL A   2     -36.672  42.811  17.566  1.00 18.57    -0.348 OA
BRANCH   9  14
HETATM   14  O2  GAL A   2     -38.161  39.424  17.393  1.00 23.81    -0.346 OA
BRANCH  14  15
HETATM   15  C1  FUC A   3     -37.926  38.688  16.222  1.00 20.96     0.292 C 
HETATM   16  C2  FUC A   3     -37.850  37.195  16.547  1.00 21.55     0.204 C 
HETATM   17  C3  FUC A   3     -39.228  36.681  16.965  1.00 21.68     0.183 C 
HETATM   18  C4  FUC A   3     -40.247  36.985  15.866  1.00 23.00     0.178 C 
HETATM   19  C5  FUC A   3     -40.255  38.486  15.586  1.00 22.59     0.152 C 
HETATM   20  C6  FUC A   3     -41.176  38.852  14.440  1.00 21.54     0.042 C 
HETATM   21  O5  FUC A   3     -38.921  38.924  15.224  1.00 22.06    -0.351 OA
BRANCH  16  22
HETATM   22  O2  FUC A   3     -36.918  36.974  17.595  1.00 21.73    -0.388 OA
HETATM   23  H02 FUC A   3     -36.302  37.709  17.636  1.00 21.73     0.210 HD
ENDBRANCH  16  22
BRANCH  17  24
HETATM   24  O3  FUC A   3     -39.170  35.281  17.197  1.00 23.03    -0.390 OA
HETATM   25  H04 FUC A   3     -39.777  35.048  17.903  1.00 23.03     0.210 HD
ENDBRANCH  17  24
BRANCH  18  26
HETATM   26  O4  FUC A   3     -39.891  36.283  14.679  1.00 24.32    -0.390 OA
HETATM   27  H06 FUC A   3     -40.604  36.351  14.040  1.00 24.32     0.210 HD
ENDBRANCH  18  26
ENDBRANCH  14  15
ENDBRANCH   9  14
BRANCH  10  28
HETATM   28  O3  GAL A   2     -36.433  39.189  19.634  1.00 21.48    -0.390 OA
HETATM   29  H03 GAL A   2     -36.767  39.018  20.518  1.00 21.48     0.210 HD
ENDBRANCH  10  28
BRANCH  11  30
HETATM   30  O4  GAL A   2     -34.644  41.216  18.788  1.00 21.68    -0.390 OA
HETATM   31  H05 GAL A   2     -34.854  40.890  17.909  1.00 21.68     0.210 HD
ENDBRANCH  11  30
BRANCH  12  32
HETATM   32  C6  GAL A   2     -35.424  44.039  19.199  1.00 22.77     0.198 C 
BRANCH  32  33
HETATM   33  O6  GAL A   2     -34.967  44.576  17.966  1.00 21.83    -0.398 OA
HETATM   34  H09 GAL A   2     -35.330  44.065  17.239  1.00 21.83     0.209 HD
ENDBRANCH  32  33
ENDBRANCH  12  32
ENDBRANCH   7   8
ENDBRANCH   4   7
BRANCH   5  35
HETATM   35  C6  NDG A   1     -38.504  44.726  15.947  1.00 19.44     0.198 C 
BRANCH  35  36
HETATM   36  O6  NDG A   1     -37.494  45.450  16.642  1.00 22.44    -0.398 OA
HETATM   37  H10 NDG A   1     -37.653  45.396  17.587  1.00 22.44     0.209 HD
ENDBRANCH  35  36
ENDBRANCH   5  35
BRANCH   3  38
HETATM   38  O3  NDG A   1     -35.710  41.022  14.175  1.00 16.70    -0.348 OA
BRANCH  38  39
HETATM   39  C1  FUC A   4     -34.337  41.226  13.986  1.00 17.98     0.292 C 
HETATM   40  C2  FUC A   4     -33.632  41.180  15.347  1.00 18.98     0.204 C 
HETATM   41  C3  FUC A   4     -33.802  39.779  15.950  1.00 18.80     0.183 C 
HETATM   42  C4  FUC A   4     -33.263  38.727  14.976  1.00 19.03     0.178 C 
HETATM   43  C5  FUC A   4     -33.931  38.880  13.599  1.00 17.92     0.152 C 
HETATM   44  O5  FUC A   4     -33.775  40.238  13.126  1.00 17.36    -0.351 OA
HETATM   45  C6  FUC A   4     -33.329  37.964  12.547  1.00 17.47     0.042 C 
BRANCH  40  46
HETATM   46  O2  FUC A   4     -34.190  42.161  16.215  1.00 18.96    -0.388 OA
HETATM   47  H02 FUC A   4     -33.500  42.761  16.506  1.00 18.96     0.210 HD
ENDBRANCH  40  46
BRANCH  41  48
HETATM   48  O3  FUC A   4     -33.095  39.696  17.183  1.00 18.98    -0.390 OA
HETATM   49  H04 FUC A   4     -32.298  39.175  17.061  1.00 18.98     0.210 HD
ENDBRANCH  41  48
BRANCH  42  50
HETATM   50  O4  FUC A   4     -31.859  38.894  14.846  1.00 17.97    -0.390 OA
HETATM   51  H06 FUC A   4     -31.412  38.398  15.536  1.00 17.97     0.210 HD
ENDBRANCH  42  50
ENDBRANCH  38  39
ENDBRANCH   3  38
BRANCH   2  52
HETATM   52  N2  NDG A   1     -35.264  42.617  11.814  1.00 15.82    -0.349 N 
HETATM   53  H04 NDG A   1     -35.633  41.739  11.480  1.00 15.82     0.163 HD
HETATM   54  C7  NDG A   1     -34.342  43.266  11.106  1.00 18.26     0.214 C 
HETATM   55  O7  NDG A   1     -33.818  44.311  11.494  1.00 16.43    -0.274 OA
HETATM   56  C8  NDG A   1     -33.938  42.677   9.764  1.00 17.59     0.117 C 
ENDBRANCH   2  52
BRANCH   1  57
HETATM   57  O1  NDG A   1     -37.604  44.199  11.942  1.00 20.35    -0.369 OA
HETATM   58  H02 NDG A   1     -38.051  43.391  12.203  1.00 20.35     0.212 HD
ENDBRANCH   1  57
TORSDOF 20
ENDMDL
MODEL 2
REMARK VINA RESULT:      -7.4      2.842      8.087
REMARK  20 active torsions:
REMARK  status: ('A' for Active; 'I' for Inactive)
REMARK    1  A    between atoms: C1_1  and  O1_2 
REMARK    2  A    between atoms: C2_3  and  N2_4 
REMARK       I    between atoms: N2_4  and  C7_13 
REMARK    3  A    between atoms: C3_5  and  O3_6 
REMARK    4  A    between atoms: O3_6  and  C1_46 
REMARK    5  A    between atoms: C4_7  and  O4_8 
REMARK    6  A    between atoms: O4_8  and  C1_19 
REMARK    7  A    between atoms: C5_9  and  C6_11 
REMARK    8  A    between atoms: C6_11  and  O6_12 
REMARK    9  A    between atoms: C2_20  and  O2_21 
REMARK   10  A    between atoms: O2_21  and  C1_33 
REMARK   11  A    between atoms: C3_22  and  O3_23 
REMARK   12  A    between atoms: C4_24  and  O4_25 
REMARK   13  A    between atoms: C5_26  and  C6_28 
REMARK   14  A    between atoms: C6_28  and  O6_29 
REMARK   15  A    between atoms: C2_34  and  O2_35 
REMARK   16  A    between atoms: C3_36  and  O3_37 
REMARK   17  A    between atoms: C4_38  and  O4_39 
REMARK   18  A    between atoms: C2_47  and  O2_48 
REMARK   19  A    between atoms: C3_49  and  O3_50 
REMARK   20  A    between atoms: C4_51  and  O4_52 
ROOT
HETATM    1  C1  NDG A   1     -39.931  35.868  17.502  1.00 18.25     0.282 C 
HETATM    2  C2  NDG A   1     -40.813  36.518  16.415  1.00 16.10     0.171 C 
HETATM    3  C3  NDG A   1     -39.952  37.226  15.361  1.00 17.07     0.183 C 
HETATM    4  C4  NDG A   1     -39.024  38.218  16.067  1.00 17.51     0.187 C 
HETATM    5  C5  NDG A   1     -38.168  37.454  17.092  1.00 19.75     0.180 C 
HETATM    6  O5  NDG A   1     -39.023  36.826  18.069  1.00 18.16    -0.349 OA
ENDROOT
BRANCH   4   7
HETATM    7  O4  NDG A   1     -38.180  38.903  15.113  1.00 18.39    -0.348 OA
BRANCH   7   8
HETATM    8  C1  GAL A   2     -37.650  40.120  15.532  1.00 19.47     0.292 C 
HETATM    9  C2  GAL A   2     -36.936  40.817  14.363  1.00 21.38     0.211 C 
HETATM   10  C3  GAL A   2     -36.412  42.170  14.843  1.00 22.16     0.183 C 
HETATM   11  C4  GAL A   2     -37.587  43.006  15.350  1.00 22.05     0.180 C 
HETATM   12  C5  GAL A   2     -38.278  42.237  16.483  1.00 19.68     0.179 C 
HETATM   13  O5  GAL A   2     -38.732  40.951  16.005  1.00 18.57    -0.348 OA
BRANCH   9  14
HETATM   14  O2  GAL A   2     -35.843  40.013  13.885  1.00 23.81    -0.346 OA
BRANCH  14  15
HETATM   15  C1  FUC A   3     -35.109  39.358  14.885  1.00 20.96     0.292 C 
HETATM   16  C2  FUC A   3     -34.805  37.921  14.456  1.00 21.55     0.204 C 
HETATM   17  C3  FUC A   3     -33.811  37.923  13.293  1.00 21.68     0.183 C 
HETATM   18  C4  FUC A   3     -32.551  38.689  13.693  1.00 23.00     0.178 C 
HETATM   19  C5  FUC A   3     -32.934  40.104  14.123  1.00 22.59     0.152 C 
HETATM   20  C6  FUC A   3     -31.742  40.896  14.623  1.00 21.54     0.042 C 
HETATM   21  O5  FUC A   3     -33.897  40.043  15.205  1.00 22.06    -0.351 OA
BRANCH  16  22
HETATM   22  O2  FUC A   3     -36.003  37.269  14.062  1.00 21.73    -0.388 OA
HETATM   23  H02 FUC A   3     -36.076  37.284  13.106  1.00 21.73     0.210 HD
ENDBRANCH  16  22
BRANCH  17  24
HETATM   24  O3  FUC A   3     -33.476  36.588  12.944  1.00 23.03    -0.390 OA
HETATM   25  H04 FUC A   3     -32.729  36.593  12.341  1.00 23.03     0.210 HD
ENDBRANCH  17  24
BRANCH  18  26
HETATM   26  O4  FUC A   3     -31.911  38.021  14.776  1.00 24.32    -0.390 OA
HETATM   27  H06 FUC A   3     -31.190  38.563  15.105  1.00 24.32     0.210 HD
ENDBRANCH  18  26
ENDBRANCH  14  15
ENDBRANCH   9  14
BRANCH  10  28
HETATM   28  O3  GAL A   2     -35.741  42.849  13.789  1.00 21.48    -0.390 OA
HETATM   29  H03 GAL A   2     -35.301  43.628  14.138  1.00 21.48     0.210 HD
ENDBRANCH  10  28
BRANCH  11  30
HETATM   30  O4  GAL A   2     -38.505  43.219  14.285  1.00 21.68    -0.390 OA
HETATM   31  H05 GAL A   2     -38.472  44.139  14.012  1.00 21.68     0.210 HD
ENDBRANCH  11  30
BRANCH  12  32
HETATM   32  C6  GAL A   2     -39.482  42.962  17.065  1.00 22.77     0.198 C 
BRANCH  32  33
HETATM   33  O6  GAL A   2     -40.655  42.722  16.302  1.00 21.83    -0.398 OA
HETATM   34  H09 GAL A   2     -41.420  42.724  16.882  1.00 21.83     0.209 HD
ENDBRANCH  32  33
ENDBRANCH  12  32
ENDBRANCH   7   8
ENDBRANCH   4   7
BRANCH   5  35
HETATM   35  C6  NDG A   1     -37.216  38.351  17.851  1.00 19.44     0.198 C 
BRANCH  35  36
HETATM   36  O6  NDG A   1     -35.897  37.816  17.852  1.00 22.44    -0.398 OA
HETATM   37  H10 NDG A   1     -35.672  37.516  16.969  1.00 22.44     0.209 HD
ENDBRANCH  35  36
ENDBRANCH   5  35
BRANCH   3  38
HETATM   38  O3  NDG A   1     -40.815  37.936  14.453  1.00 16.70    -0.348 OA
BRANCH  38  39
HETATM   39  C1  FUC A   4     -41.690  38.859  15.040  1.00 17.98     0.292 C 
HETATM   40  C2  FUC A   4     -41.774  40.106  14.150  1.00 18.98     0.204 C 
HETATM   41  C3  FUC A   4     -42.375  39.712  12.794  1.00 18.80     0.183 C 
HETATM   42  C4  FUC A   4     -43.741  39.051  13.007  1.00 19.03     0.178 C 
HETATM   43  C5  FUC A   4     -43.618  37.869  13.982  1.00 17.92     0.152 C 
HETATM   44  O5  FUC A   4     -42.993  38.309  15.210  1.00 17.36    -0.351 OA
HETATM   45  C6  FUC A   4     -44.964  37.268  14.351  1.00 17.47     0.042 C 
BRANCH  40  46
HETATM   46  O2  FUC A   4     -40.475  40.660  13.970  1.00 18.96    -0.388 OA
HETATM   47  H02 FUC A   4     -39.900  40.005  13.567  1.00 18.96     0.210 HD
ENDBRANCH  40  46
BRANCH  41  48
HETATM   48  O3  FUC A   4     -42.525  40.868  11.979  1.00 18.98    -0.390 OA
HETATM   49  H04 FUC A   4     -43.100  40.665  11.237  1.00 18.98     0.210 HD
ENDBRANCH  41  48
BRANCH  42  50
HETATM   50  O4  FUC A   4     -44.643  40.013  13.534  1.00 17.97    -0.390 OA
HETATM   51  H06 FUC A   4     -44.601  39.999  14.493  1.00 17.97     0.210 HD
ENDBRANCH  42  50
ENDBRANCH  38  39
ENDBRANCH   3  38
BRANCH   2  52
HETATM   52  N2  NDG A   1     -41.664  35.525  15.787  1.00 15.82    -0.349 N 
HETATM   53  H04 NDG A   1     -41.409  35.134  14.891  1.00 15.82     0.163 HD
HETATM   54  C7  NDG A   1     -42.780  35.128  16.395  1.00 18.26     0.214 C 
HETATM   55  O7  NDG A   1     -43.166  35.611  17.460  1.00 16.43    -0.274 OA
HETATM   56  C8  NDG A   1     -43.595  34.030  15.731  1.00 17.59     0.117 C 
ENDBRANCH   2  52
BRANCH   1  57
HETATM   57  O1  NDG A   1     -39.194  34.823  16.973  1.00 20.35    -0.369 OA
HETATM   58  H02 NDG A   1     -38.306  34.841  17.337  1.00 20.35     0.212 HD
ENDBRANCH   1  57
TORSDOF 20
ENDMDL
MODEL 3
REMARK VINA RESULT:      -7.2      2.292      6.803
REMARK  20 active torsions:
REMARK  status: ('A' for Active; 'I' for Inactive)
REMARK    1  A    between atoms: C1_1  and  O1_2 
REMARK    2  A    between atoms: C2_3  and  N2_4 
REMARK       I    between atoms: N2_4  and  C7_13 
REMARK    3  A    between atoms: C3_5  and  O3_6 
REMARK    4  A    between atoms: O3_6  and  C1_46 
REMARK    5  A    between atoms: C4_7  and  O4_8 
REMARK    6  A    between atoms: O4_8  and  C1_19 
REMARK    7  A    between atoms: C5_9  and  C6_11 
REMARK    8  A    between atoms: C6_11  and  O6_12 
REMARK    9  A    between atoms: C2_20  and  O2_21 
REMARK   10  A    between atoms: O2_21  and  C1_33 
REMARK   11  A    between atoms: C3_22  and  O3_23 
REMARK   12  A    between atoms: C4_24  and  O4_25 
REMARK   13  A    between atoms: C5_26  and  C6_28 
REMARK   14  A    between atoms: C6_28  and  O6_29 
REMARK   15  A    between atoms: C2_34  and  O2_35 
REMARK   16  A    between atoms: C3_36  and  O3_37 
REMARK   17  A    between atoms: C4_38  and  O4_39 
REMARK   18  A    between atoms: C2_47  and  O2_48 
REMARK   19  A    between atoms: C3_49  and  O3_50 
REMARK   20  A    between atoms: C4_51  and  O4_52 
ROOT
HETATM    1  C1  NDG A   1     -38.966  39.634  15.535  1.00 18.25     0.282 C 
HETATM    2  C2  NDG A   1     -37.538  39.215  15.129  1.00 16.10     0.171 C 
HETATM    3  C3  NDG A   1     -36.585  40.417  15.156  1.00 17.07     0.183 C 
HETATM    4  C4  NDG A   1     -37.166  41.529  14.280  1.00 17.51     0.187 C 
HETATM    5  C5  NDG A   1     -38.566  41.892  14.803  1.00 19.75     0.180 C 
HETATM    6  O5  NDG A   1     -39.427  40.736  14.736  1.00 18.16    -0.349 OA
ENDROOT
BRANCH   4   7
HETATM    7  O4  NDG A   1     -36.306  42.692  14.285  1.00 18.39    -0.348 OA
BRANCH   7   8
HETATM    8  C1  GAL A   2     -36.393  43.518  13.169  1.00 19.47     0.292 C 
HETATM    9  C2  GAL A   2     -36.016  44.960  13.546  1.00 21.38     0.211 C 
HETATM   10  C3  GAL A   2     -36.072  45.828  12.289  1.00 22.16     0.183 C 
HETATM   11  C4  GAL A   2     -35.106  45.258  11.250  1.00 22.05     0.180 C 
HETATM   12  C5  GAL A   2     -35.512  43.810  10.951  1.00 19.68     0.179 C 
HETATM   13  O5  GAL A   2     -35.480  43.025  12.164  1.00 18.57    -0.348 OA
BRANCH   9  14
HETATM   14  O2  GAL A   2     -36.923  45.477  14.536  1.00 23.81    -0.346 OA
BRANCH  14  15
HETATM   15  C1  FUC A   3     -36.310  46.148  15.605  1.00 20.96     0.292 C 
HETATM   16  C2  FUC A   3     -37.332  47.031  16.324  1.00 21.55     0.204 C 
HETATM   17  C3  FUC A   3     -38.356  46.158  17.051  1.00 21.68     0.183 C 
HETATM   18  C4  FUC A   3     -37.636  45.207  18.007  1.00 23.00     0.178 C 
HETATM   19  C5  FUC A   3     -36.624  44.374  17.224  1.00 22.59     0.152 C 
HETATM   20  C6  FUC A   3     -35.804  43.470  18.123  1.00 21.54     0.042 C 
HETATM   21  O5  FUC A   3     -35.699  45.249  16.532  1.00 22.06    -0.351 OA
BRANCH  16  22
HETATM   22  O2  FUC A   3     -37.994  47.867  15.387  1.00 21.73    -0.388 OA
HETATM   23  H02 FUC A   3     -37.852  47.530  14.500  1.00 21.73     0.210 HD
ENDBRANCH  16  22
BRANCH  17  24
HETATM   24  O3  FUC A   3     -39.261  46.979  17.776  1.00 23.03    -0.390 OA
HETATM   25  H04 FUC A   3     -40.098  46.521  17.877  1.00 23.03     0.210 HD
ENDBRANCH  17  24
BRANCH  18  26
HETATM   26  O4  FUC A   3     -36.957  45.961  19.007  1.00 24.32    -0.390 OA
HETATM   27  H06 FUC A   3     -36.034  45.699  19.034  1.00 24.32     0.210 HD
ENDBRANCH  18  26
ENDBRANCH  14  15
ENDBRANCH   9  14
BRANCH  10  28
HETATM   28  O3  GAL A   2     -35.731  47.173  12.596  1.00 21.48    -0.390 OA
HETATM   29  H03 GAL A   2     -35.827  47.321  13.539  1.00 21.48     0.210 HD
ENDBRANCH  10  28
BRANCH  11  30
HETATM   30  O4  GAL A   2     -33.784  45.288  11.773  1.00 21.68    -0.390 OA
HETATM   31  H05 GAL A   2     -33.215  45.782  11.177  1.00 21.68     0.210 HD
ENDBRANCH  11  30
BRANCH  12  32
HETATM   32  C6  GAL A   2     -34.611  43.123   9.935  1.00 22.77     0.198 C 
BRANCH  32  33
HETATM   33  O6  GAL A   2     -33.316  42.883  10.464  1.00 21.83    -0.398 OA
HETATM   34  H09 GAL A   2     -32.692  42.762   9.744  1.00 21.83     0.209 HD
ENDBRANCH  32  33
ENDBRANCH  12  32
ENDBRANCH   7   8
ENDBRANCH   4   7
BRANCH   5  35
HETATM   35  C6  NDG A   1     -39.232  42.984  13.997  1.00 19.44     0.198 C 
BRANCH  35  36
HETATM   36  O6  NDG A   1     -39.625  44.070  14.829  1.00 22.44    -0.398 OA
HETATM   37  H10 NDG A   1     -38.913  44.282  15.437  1.00 22.44     0.209 HD
ENDBRANCH  35  36
ENDBRANCH   5  35
BRANCH   3  38
HETATM   38  O3  NDG A   1     -35.306  40.010  14.635  1.00 16.70    -0.348 OA
BRANCH  38  39
HETATM   39  C1  FUC A   4     -34.299  39.799  15.586  1.00 17.98     0.292 C 
HETATM   40  C2  FUC A   4     -33.159  39.001  14.941  1.00 18.98     0.204 C 
HETATM   41  C3  FUC A   4     -32.543  39.835  13.810  1.00 18.80     0.183 C 
HETATM   42  C4  FUC A   4     -32.074  41.186  14.361  1.00 19.03     0.178 C 
HETATM   43  C5  FUC A   4     -33.229  41.901  15.082  1.00 17.92     0.152 C 
HETATM   44  O5  FUC A   4     -33.790  41.029  16.092  1.00 17.36    -0.351 OA
HETATM   45  C6  FUC A   4     -32.787  43.175  15.781  1.00 17.47     0.042 C 
BRANCH  40  46
HETATM   46  O2  FUC A   4     -33.659  37.771  14.428  1.00 18.96    -0.388 OA
HETATM   47  H02 FUC A   4     -34.215  37.944  13.665  1.00 18.96     0.210 HD
ENDBRANCH  40  46
BRANCH  41  48
HETATM   48  O3  FUC A   4     -31.438  39.140  13.244  1.00 18.98    -0.390 OA
HETATM   49  H04 FUC A   4     -31.677  38.221  13.100  1.00 18.98     0.210 HD
ENDBRANCH  41  48
BRANCH  42  50
HETATM   50  O4  FUC A   4     -31.005  40.968  15.270  1.00 17.97    -0.390 OA
HETATM   51  H06 FUC A   4     -31.256  41.283  16.141  1.00 17.97     0.210 HD
ENDBRANCH  42  50
ENDBRANCH  38  39
ENDBRANCH   3  38
BRANCH   2  52
HETATM   52  N2  NDG A   1     -37.048  38.162  15.999  1.00 15.82    -0.349 N 
HETATM   53  H04 NDG A   1     -37.051  38.291  17.000  1.00 15.82     0.163 HD
HETATM   54  C7  NDG A   1     -36.596  37.025  15.474  1.00 18.26     0.214 C 
HETATM   55  O7  NDG A   1     -36.519  36.837  14.259  1.00 16.43    -0.274 OA
HETATM   56  C8  NDG A   1     -36.167  35.926  16.432  1.00 17.59     0.117 C 
ENDBRANCH   2  52
BRANCH   1  57
HETATM   57  O1  NDG A   1     -39.005  40.010  16.866  1.00 20.35    -0.369 OA
HETATM   58  H02 NDG A   1     -39.711  39.537  17.312  1.00 20.35     0.212 HD
ENDBRANCH   1  57
TORSDOF 20
ENDMDL
MODEL 4
REMARK VINA RESULT:      -7.1      2.377      4.747
REMARK  20 active torsions:
REMARK  status: ('A' for Active; 'I' for Inactive)
REMARK    1  A    between atoms: C1_1  and  O1_2 
REMARK    2  A    between atoms: C2_3  and  N2_4 
REMARK       I    between atoms: N2_4  and  C7_13 
REMARK    3  A    between atoms: C3_5  and  O3_6 
REMARK    4  A    between atoms: O3_6  and  C1_46 
REMARK    5  A    between atoms: C4_7  and  O4_8 
REMARK    6  A    between atoms: O4_8  and  C1_19 
REMARK    7  A    between atoms: C5_9  and  C6_11 
REMARK    8  A    between atoms: C6_11  and  O6_12 
REMARK    9  A    between atoms: C2_20  and  O2_21 
REMARK   10  A    between atoms: O2_21  and  C1_33 
REMARK   11  A    between atoms: C3_22  and  O3_23 
REMARK   12  A    between atoms: C4_24  and  O4_25 
REMARK   13  A    between atoms: C5_26  and  C6_28 
REMARK   14  A    between atoms: C6_28  and  O6_29 
REMARK   15  A    between atoms: C2_34  and  O2_35 
REMARK   16  A    between atoms: C3_36  and  O3_37 
REMARK   17  A    between atoms: C4_38  and  O4_39 
REMARK   18  A    between atoms: C2_47  and  O2_48 
REMARK   19  A    between atoms: C3_49  and  O3_50 
REMARK   20  A    between atoms: C4_51  and  O4_52 
ROOT
HETATM    1  C1  NDG A   1     -36.829  43.369  17.114  1.00 18.25     0.282 C 
HETATM    2  C2  NDG A   1     -35.949  42.374  16.329  1.00 16.10     0.171 C 
HETATM    3  C3  NDG A   1     -36.812  41.407  15.508  1.00 17.07     0.183 C 
HETATM    4  C4  NDG A   1     -37.816  40.727  16.442  1.00 17.51     0.187 C 
HETATM    5  C5  NDG A   1     -38.662  41.810  17.134  1.00 19.75     0.180 C 
HETATM    6  O5  NDG A   1     -37.807  42.677  17.907  1.00 18.16    -0.349 OA
ENDROOT
BRANCH   4   7
HETATM    7  O4  NDG A   1     -38.665  39.813  15.710  1.00 18.39    -0.348 OA
BRANCH   7   8
HETATM    8  C1  GAL A   2     -39.255  38.799  16.457  1.00 19.47     0.292 C 
HETATM    9  C2  GAL A   2     -39.668  37.636  15.539  1.00 21.38     0.211 C 
HETATM   10  C3  GAL A   2     -40.264  36.520  16.396  1.00 22.16     0.183 C 
HETATM   11  C4  GAL A   2     -39.222  36.072  17.422  1.00 22.05     0.180 C 
HETATM   12  C5  GAL A   2     -38.826  37.283  18.274  1.00 19.68     0.179 C 
HETATM   13  O5  GAL A   2     -38.296  38.332  17.431  1.00 18.57    -0.348 OA
BRANCH   9  14
HETATM   14  O2  GAL A   2     -40.635  38.076  14.569  1.00 23.81    -0.346 OA
BRANCH  14  15
HETATM   15  C1  FUC A   3     -41.658  38.889  15.081  1.00 20.96     0.292 C 
HETATM   16  C2  FUC A   3     -41.860  40.107  14.177  1.00 21.55     0.204 C 
HETATM   17  C3  FUC A   3     -42.453  39.669  12.837  1.00 21.68     0.183 C 
HETATM   18  C4  FUC A   3     -43.752  38.899  13.074  1.00 23.00     0.178 C 
HETATM   19  C5  FUC A   3     -43.475  37.712  13.994  1.00 22.59     0.152 C 
HETATM   20  C6  FUC A   3     -44.738  36.953  14.349  1.00 21.54     0.042 C 
HETATM   21  O5  FUC A   3     -42.889  38.180  15.234  1.00 22.06    -0.351 OA
BRANCH  16  22
HETATM   22  O2  FUC A   3     -40.620  40.762  13.962  1.00 21.73    -0.388 OA
HETATM   23  H02 FUC A   3     -40.375  40.690  13.037  1.00 21.73     0.210 HD
ENDBRANCH  16  22
BRANCH  17  24
HETATM   24  O3  FUC A   3     -42.706  40.808  12.027  1.00 23.03    -0.390 OA
HETATM   25  H04 FUC A   3     -43.524  40.681  11.542  1.00 23.03     0.210 HD
ENDBRANCH  17  24
BRANCH  18  26
HETATM   26  O4  FUC A   3     -44.711  39.759  13.684  1.00 24.32    -0.390 OA
HETATM   27  H06 FUC A   3     -45.403  39.965  13.052  1.00 24.32     0.210 HD
ENDBRANCH  18  26
ENDBRANCH  14  15
ENDBRANCH   9  14
BRANCH  10  28
HETATM   28  O3  GAL A   2     -40.661  35.424  15.584  1.00 21.48    -0.390 OA
HETATM   29  H03 GAL A   2     -39.903  34.858  15.416  1.00 21.48     0.210 HD
ENDBRANCH  10  28
BRANCH  11  30
HETATM   30  O4  GAL A   2     -38.080  35.569  16.740  1.00 21.68    -0.390 OA
HETATM   31  H05 GAL A   2     -37.505  36.299  16.496  1.00 21.68     0.210 HD
ENDBRANCH  11  30
BRANCH  12  32
HETATM   32  C6  GAL A   2     -37.776  36.968  19.329  1.00 22.77     0.198 C 
BRANCH  32  33
HETATM   33  O6  GAL A   2     -36.617  37.775  19.169  1.00 21.83    -0.398 OA
HETATM   34  H09 GAL A   2     -35.832  37.232  19.274  1.00 21.83     0.209 HD
ENDBRANCH  32  33
ENDBRANCH  12  32
ENDBRANCH   7   8
ENDBRANCH   4   7
BRANCH   5  35
HETATM   35  C6  NDG A   1     -39.687  41.238  18.088  1.00 19.44     0.198 C 
BRANCH  35  36
HETATM   36  O6  NDG A   1     -39.065  40.721  19.260  1.00 22.44    -0.398 OA
HETATM   37  H10 NDG A   1     -38.226  41.165  19.399  1.00 22.44     0.209 HD
ENDBRANCH  35  36
ENDBRANCH   5  35
BRANCH   3  38
HETATM   38  O3  NDG A   1     -35.960  40.412  14.910  1.00 16.70    -0.348 OA
BRANCH  38  39
HETATM   39  C1  FUC A   4     -35.104  39.736  15.789  1.00 17.98     0.292 C 
HETATM   40  C2  FUC A   4     -35.056  38.253  15.400  1.00 18.98     0.204 C 
HETATM   41  C3  FUC A   4     -34.455  38.124  13.994  1.00 18.80     0.183 C 
HETATM   42  C4  FUC A   4     -33.072  38.783  13.961  1.00 19.03     0.178 C 
HETATM   43  C5  FUC A   4     -33.159  40.237  14.452  1.00 17.92     0.152 C 
HETATM   44  O5  FUC A   4     -33.787  40.278  15.756  1.00 17.36    -0.351 OA
HETATM   45  C6  FUC A   4     -31.797  40.896  14.587  1.00 17.47     0.042 C 
BRANCH  40  46
HETATM   46  O2  FUC A   4     -36.369  37.703  15.426  1.00 18.96    -0.388 OA
HETATM   47  H02 FUC A   4     -36.981  38.316  15.012  1.00 18.96     0.210 HD
ENDBRANCH  40  46
BRANCH  41  48
HETATM   48  O3  FUC A   4     -34.338  36.750  13.643  1.00 18.98    -0.390 OA
HETATM   49  H04 FUC A   4     -34.708  36.610  12.768  1.00 18.98     0.210 HD
ENDBRANCH  41  48
BRANCH  42  50
HETATM   50  O4  FUC A   4     -32.190  38.049  14.797  1.00 17.97    -0.390 OA
HETATM   51  H06 FUC A   4     -31.988  37.205  14.387  1.00 17.97     0.210 HD
ENDBRANCH  42  50
ENDBRANCH  38  39
ENDBRANCH   3  38
BRANCH   2  52
HETATM   52  N2  NDG A   1     -35.024  43.082  15.464  1.00 15.82    -0.349 N 
HETATM   53  H04 NDG A   1     -35.215  43.162  14.476  1.00 15.82     0.163 HD
HETATM   54  C7  NDG A   1     -33.922  43.627  15.977  1.00 18.26     0.214 C 
HETATM   55  O7  NDG A   1     -33.613  43.512  17.163  1.00 16.43    -0.274 OA
HETATM   56  C8  NDG A   1     -33.027  44.424  15.042  1.00 17.59     0.117 C 
ENDBRANCH   2  52
BRANCH   1  57
HETATM   57  O1  NDG A   1     -37.489  44.225  16.250  1.00 20.35    -0.369 OA
HETATM   58  H02 NDG A   1     -38.130  43.729  15.736  1.00 20.35     0.212 HD
ENDBRANCH   1  57
TORSDOF 20
ENDMDL
MODEL 5
REMARK VINA RESULT:      -7.1      2.242      6.845
REMARK  20 active torsions:
REMARK  status: ('A' for Active; 'I' for Inactive)
REMARK    1  A    between atoms: C1_1  and  O1_2 
REMARK    2  A    between atoms: C2_3  and  N2_4 
REMARK       I    between atoms: N2_4  and  C7_13 
REMARK    3  A    between atoms: C3_5  and  O3_6 
REMARK    4  A    between atoms: O3_6  and  C1_46 
REMARK    5  A    between atoms: C4_7  and  O4_8 
REMARK    6  A    between atoms: O4_8  and  C1_19 
REMARK    7  A    between atoms: C5_9  and  C6_11 
REMARK    8  A    between atoms: C6_11  and  O6_12 
REMARK    9  A    between atoms: C2_20  and  O2_21 
REMARK   10  A    between atoms: O2_21  and  C1_33 
REMARK   11  A    between atoms: C3_22  and  O3_23 
REMARK   12  A    between atoms: C4_24  and  O4_25 
REMARK   13  A    between atoms: C5_26  and  C6_28 
REMARK   14  A    between atoms: C6_28  and  O6_29 
REMARK   15  A    between atoms: C2_34  and  O2_35 
REMARK   16  A    between atoms: C3_36  and  O3_37 
REMARK   17  A    between atoms: C4_38  and  O4_39 
REMARK   18  A    between atoms: C2_47  and  O2_48 
REMARK   19  A    between atoms: C3_49  and  O3_50 
REMARK   20  A    between atoms: C4_51  and  O4_52 
ROOT
HETATM    1  C1  NDG A   1     -32.494  41.443  14.120  1.00 18.25     0.282 C 
HETATM    2  C2  NDG A   1     -33.739  40.542  14.253  1.00 16.10     0.171 C 
HETATM    3  C3  NDG A   1     -35.022  41.332  13.967  1.00 17.07     0.183 C 
HETATM    4  C4  NDG A   1     -35.059  42.561  14.878  1.00 17.51     0.187 C 
HETATM    5  C5  NDG A   1     -33.795  43.403  14.628  1.00 19.75     0.180 C 
HETATM    6  O5  NDG A   1     -32.621  42.621  14.932  1.00 18.16    -0.349 OA
ENDROOT
BRANCH   4   7
HETATM    7  O4  NDG A   1     -36.247  43.349  14.634  1.00 18.39    -0.348 OA
BRANCH   7   8
HETATM    8  C1  GAL A   2     -36.482  44.389  15.527  1.00 19.47     0.292 C 
HETATM    9  C2  GAL A   2     -37.167  45.562  14.807  1.00 21.38     0.211 C 
HETATM   10  C3  GAL A   2     -37.456  46.665  15.825  1.00 22.16     0.183 C 
HETATM   11  C4  GAL A   2     -38.348  46.097  16.930  1.00 22.05     0.180 C 
HETATM   12  C5  GAL A   2     -37.626  44.910  17.577  1.00 19.68     0.179 C 
HETATM   13  O5  GAL A   2     -37.339  43.901  16.582  1.00 18.57    -0.348 OA
BRANCH   9  14
HETATM   14  O2  GAL A   2     -36.324  46.075  13.760  1.00 23.81    -0.346 OA
BRANCH  14  15
HETATM   15  C1  FUC A   3     -36.903  46.077  12.482  1.00 20.96     0.292 C 
HETATM   16  C2  FUC A   3     -36.473  47.328  11.714  1.00 21.55     0.204 C 
HETATM   17  C3  FUC A   3     -34.983  47.248  11.378  1.00 21.68     0.183 C 
HETATM   18  C4  FUC A   3     -34.697  45.963  10.602  1.00 23.00     0.178 C 
HETATM   19  C5  FUC A   3     -35.167  44.762  11.421  1.00 22.59     0.152 C 
HETATM   20  C6  FUC A   3     -35.001  43.455  10.673  1.00 21.54     0.042 C 
HETATM   21  O5  FUC A   3     -36.575  44.904  11.735  1.00 22.06    -0.351 OA
BRANCH  16  22
HETATM   22  O2  FUC A   3     -36.728  48.487  12.493  1.00 21.73    -0.388 OA
HETATM   23  H02 FUC A   3     -36.841  48.236  13.412  1.00 21.73     0.210 HD
ENDBRANCH  16  22
BRANCH  17  24
HETATM   24  O3  FUC A   3     -34.602  48.376  10.604  1.00 23.03    -0.390 OA
HETATM   25  H04 FUC A   3     -33.676  48.573  10.759  1.00 23.03     0.210 HD
ENDBRANCH  17  24
BRANCH  18  26
HETATM   26  O4  FUC A   3     -35.395  45.991   9.360  1.00 24.32    -0.390 OA
HETATM   27  H06 FUC A   3     -36.117  45.359   9.384  1.00 24.32     0.210 HD
ENDBRANCH  18  26
ENDBRANCH  14  15
ENDBRANCH   9  14
BRANCH  10  28
HETATM   28  O3  GAL A   2     -38.090  47.771  15.197  1.00 21.48    -0.390 OA
HETATM   29  H03 GAL A   2     -37.976  48.555  15.739  1.00 21.48     0.210 HD
ENDBRANCH  10  28
BRANCH  11  30
HETATM   30  O4  GAL A   2     -39.577  45.661  16.362  1.00 21.68    -0.390 OA
HETATM   31  H05 GAL A   2     -39.402  44.990  15.696  1.00 21.68     0.210 HD
ENDBRANCH  11  30
BRANCH  12  32
HETATM   32  C6  GAL A   2     -38.423  44.245  18.689  1.00 22.77     0.198 C 
BRANCH  32  33
HETATM   33  O6  GAL A   2     -39.248  43.203  18.188  1.00 21.83    -0.398 OA
HETATM   34  H09 GAL A   2     -39.663  43.488  17.370  1.00 21.83     0.209 HD
ENDBRANCH  32  33
ENDBRANCH  12  32
ENDBRANCH   7   8
ENDBRANCH   4   7
BRANCH   5  35
HETATM   35  C6  NDG A   1     -33.733  44.644  15.489  1.00 19.44     0.198 C 
BRANCH  35  36
HETATM   36  O6  NDG A   1     -33.549  45.811  14.695  1.00 22.44    -0.398 OA
HETATM   37  H10 NDG A   1     -33.801  46.586  15.202  1.00 22.44     0.209 HD
ENDBRANCH  35  36
ENDBRANCH   5  35
BRANCH   3  38
HETATM   38  O3  NDG A   1     -36.159  40.494  14.242  1.00 16.70    -0.348 OA
BRANCH  38  39
HETATM   39  C1  FUC A   4     -36.256  40.011  15.553  1.00 17.98     0.292 C 
HETATM   40  C2  FUC A   4     -37.722  40.070  16.002  1.00 18.98     0.204 C 
HETATM   41  C3  FUC A   4     -38.554  39.135  15.113  1.00 18.80     0.183 C 
HETATM   42  C4  FUC A   4     -37.980  37.716  15.174  1.00 19.03     0.178 C 
HETATM   43  C5  FUC A   4     -36.486  37.727  14.811  1.00 17.92     0.152 C 
HETATM   44  O5  FUC A   4     -35.783  38.670  15.653  1.00 17.36    -0.351 OA
HETATM   45  C6  FUC A   4     -35.824  36.372  15.002  1.00 17.47     0.042 C 
BRANCH  40  46
HETATM   46  O2  FUC A   4     -38.206  41.404  15.900  1.00 18.96    -0.388 OA
HETATM   47  H02 FUC A   4     -37.611  41.997  16.366  1.00 18.96     0.210 HD
ENDBRANCH  40  46
BRANCH  41  48
HETATM   48  O3  FUC A   4     -39.906  39.123  15.558  1.00 18.98    -0.390 OA
HETATM   49  H04 FUC A   4     -40.485  38.921  14.819  1.00 18.98     0.210 HD
ENDBRANCH  41  48
BRANCH  42  50
HETATM   50  O4  FUC A   4     -38.148  37.206  16.488  1.00 17.97    -0.390 OA
HETATM   51  H06 FUC A   4     -37.305  37.216  16.947  1.00 17.97     0.210 HD
ENDBRANCH  42  50
ENDBRANCH  38  39
ENDBRANCH   3  38
BRANCH   2  52
HETATM   52  N2  NDG A   1     -33.640  39.400  13.363  1.00 15.82    -0.349 N 
HETATM   53  H04 NDG A   1     -34.100  39.418  12.465  1.00 15.82     0.163 HD
HETATM   54  C7  NDG A   1     -32.941  38.329  13.734  1.00 18.26     0.214 C 
HETATM   55  O7  NDG A   1     -32.408  38.232  14.840  1.00 16.43    -0.274 OA
HETATM   56  C8  NDG A   1     -32.805  37.192  12.734  1.00 17.59     0.117 C 
ENDBRANCH   2  52
BRANCH   1  57
HETATM   57  O1  NDG A   1     -32.311  41.833  12.805  1.00 20.35    -0.369 OA
HETATM   58  H02 NDG A   1     -31.796  42.642  12.780  1.00 20.35     0.212 HD
ENDBRANCH   1  57
TORSDOF 20
ENDMDL
MODEL 6
REMARK VINA RESULT:      -6.6      2.034      6.669
REMARK  20 active torsions:
REMARK  status: ('A' for Active; 'I' for Inactive)
REMARK    1  A    between atoms: C1_1  and  O1_2 
REMARK    2  A    between atoms: C2_3  and  N2_4 
REMARK       I    between atoms: N2_4  and  C7_13 
REMARK    3  A    between atoms: C3_5  and  O3_6 
REMARK    4  A    between atoms: O3_6  and  C1_46 
REMARK    5  A    between atoms: C4_7  and  O4_8 
REMARK    6  A    between atoms: O4_8  and  C1_19 
REMARK    7  A    between atoms: C5_9  and  C6_11 
REMARK    8  A    between atoms: C6_11  and  O6_12 
REMARK    9  A    between atoms: C2_20  and  O2_21 
REMARK   10  A    between atoms: O2_21  and  C1_33 
REMARK   11  A    between atoms: C3_22  and  O3_23 
REMARK   12  A    between atoms: C4_24  and  O4_25 
REMARK   13  A    between atoms: C5_26  and  C6_28 
REMARK   14  A    between atoms: C6_28  and  O6_29 
REMARK   15  A    between atoms: C2_34  and  O2_35 
REMARK   16  A    between atoms: C3_36  and  O3_37 
REMARK   17  A    between atoms: C4_38  and  O4_39 
REMARK   18  A    between atoms: C2_47  and  O2_48 
REMARK   19  A    between atoms: C3_49  and  O3_50 
REMARK   20  A    between atoms: C4_51  and  O4_52 
ROOT
HETATM    1  C1  NDG A   1     -32.010  40.328  15.380  1.00 18.25     0.282 C 
HETATM    2  C2  NDG A   1     -33.330  39.531  15.437  1.00 16.10     0.171 C 
HETATM    3  C3  NDG A   1     -34.446  40.265  14.685  1.00 17.07     0.183 C 
HETATM    4  C4  NDG A   1     -34.568  41.685  15.242  1.00 17.51     0.187 C 
HETATM    5  C5  NDG A   1     -33.210  42.394  15.094  1.00 19.75     0.180 C 
HETATM    6  O5  NDG A   1     -32.202  41.676  15.836  1.00 18.16    -0.349 OA
ENDROOT
BRANCH   4   7
HETATM    7  O4  NDG A   1     -35.602  42.425  14.552  1.00 18.39    -0.348 OA
BRANCH   7   8
HETATM    8  C1  GAL A   2     -36.162  43.487  15.254  1.00 19.47     0.292 C 
HETATM    9  C2  GAL A   2     -37.388  44.031  14.503  1.00 21.38     0.211 C 
HETATM   10  C3  GAL A   2     -38.008  45.161  15.324  1.00 22.16     0.183 C 
HETATM   11  C4  GAL A   2     -38.398  44.618  16.700  1.00 22.05     0.180 C 
HETATM   12  C5  GAL A   2     -37.141  44.057  17.375  1.00 19.68     0.179 C 
HETATM   13  O5  GAL A   2     -36.562  43.014  16.558  1.00 18.57    -0.348 OA
BRANCH   9  14
HETATM   14  O2  GAL A   2     -37.010  44.522  13.205  1.00 23.81    -0.346 OA
BRANCH  14  15
HETATM   15  C1  FUC A   3     -35.807  45.244  13.173  1.00 20.96     0.292 C 
HETATM   16  C2  FUC A   3     -34.937  44.761  12.011  1.00 21.55     0.204 C 
HETATM   17  C3  FUC A   3     -35.575  45.162  10.680  1.00 21.68     0.183 C 
HETATM   18  C4  FUC A   3     -35.797  46.674  10.650  1.00 23.00     0.178 C 
HETATM   19  C5  FUC A   3     -36.657  47.082  11.845  1.00 22.59     0.152 C 
HETATM   20  C6  FUC A   3     -36.844  48.584  11.933  1.00 21.54     0.042 C 
HETATM   21  O5  FUC A   3     -36.022  46.653  13.075  1.00 22.06    -0.351 OA
BRANCH  16  22
HETATM   22  O2  FUC A   3     -34.792  43.350  12.068  1.00 21.73    -0.388 OA
HETATM   23  H02 FUC A   3     -34.586  43.085  12.967  1.00 21.73     0.210 HD
ENDBRANCH  16  22
BRANCH  17  24
HETATM   24  O3  FUC A   3     -34.730  44.776   9.606  1.00 23.03    -0.390 OA
HETATM   25  H04 FUC A   3     -33.920  45.290   9.634  1.00 23.03     0.210 HD
ENDBRANCH  17  24
BRANCH  18  26
HETATM   26  O4  FUC A   3     -34.541  47.343  10.720  1.00 24.32    -0.390 OA
HETATM   27  H06 FUC A   3     -34.685  48.291  10.764  1.00 24.32     0.210 HD
ENDBRANCH  18  26
ENDBRANCH  14  15
ENDBRANCH   9  14
BRANCH  10  28
HETATM   28  O3  GAL A   2     -39.147  45.693  14.662  1.00 21.48    -0.390 OA
HETATM   29  H03 GAL A   2     -39.315  46.584  14.979  1.00 21.48     0.210 HD
ENDBRANCH  10  28
BRANCH  11  30
HETATM   30  O4  GAL A   2     -39.360  43.583  16.540  1.00 21.68    -0.390 OA
HETATM   31  H05 GAL A   2     -39.218  43.141  15.699  1.00 21.68     0.210 HD
ENDBRANCH  11  30
BRANCH  12  32
HETATM   32  C6  GAL A   2     -37.402  43.468  18.754  1.00 22.77     0.198 C 
BRANCH  32  33
HETATM   33  O6  GAL A   2     -37.692  42.080  18.683  1.00 21.83    -0.398 OA
HETATM   34  H09 GAL A   2     -37.657  41.792  17.768  1.00 21.83     0.209 HD
ENDBRANCH  32  33
ENDBRANCH  12  32
ENDBRANCH   7   8
ENDBRANCH   4   7
BRANCH   5  35
HETATM   35  C6  NDG A   1     -33.223  43.810  15.625  1.00 19.44     0.198 C 
BRANCH  35  36
HETATM   36  O6  NDG A   1     -33.591  43.839  17.000  1.00 22.44    -0.398 OA
HETATM   37  H10 NDG A   1     -34.345  44.420  17.117  1.00 22.44     0.209 HD
ENDBRANCH  35  36
ENDBRANCH   5  35
BRANCH   3  38
HETATM   38  O3  NDG A   1     -35.686  39.561  14.885  1.00 16.70    -0.348 OA
BRANCH  38  39
HETATM   39  C1  FUC A   4     -36.063  39.360  16.219  1.00 17.98     0.292 C 
HETATM   40  C2  FUC A   4     -37.584  39.521  16.340  1.00 18.98     0.204 C 
HETATM   41  C3  FUC A   4     -38.270  38.430  15.507  1.00 18.80     0.183 C 
HETATM   42  C4  FUC A   4     -37.789  37.050  15.966  1.00 19.03     0.178 C 
HETATM   43  C5  FUC A   4     -36.254  36.974  15.919  1.00 17.92     0.152 C 
HETATM   44  O5  FUC A   4     -35.685  38.066  16.680  1.00 17.36    -0.351 OA
HETATM   45  C6  FUC A   4     -35.710  35.683  16.507  1.00 17.47     0.042 C 
BRANCH  40  46
HETATM   46  O2  FUC A   4     -37.972  40.810  15.877  1.00 18.96    -0.388 OA
HETATM   47  H02 FUC A   4     -38.213  41.360  16.626  1.00 18.96     0.210 HD
ENDBRANCH  40  46
BRANCH  41  48
HETATM   48  O3  FUC A   4     -39.682  38.521  15.661  1.00 18.98    -0.390 OA
HETATM   49  H04 FUC A   4     -40.062  38.947  14.890  1.00 18.98     0.210 HD
ENDBRANCH  41  48
BRANCH  42  50
HETATM   50  O4  FUC A   4     -38.238  36.823  17.294  1.00 17.97    -0.390 OA
HETATM   51  H06 FUC A   4     -38.504  37.656  17.689  1.00 17.97     0.210 HD
ENDBRANCH  42  50
ENDBRANCH  38  39
ENDBRANCH   3  38
BRANCH   2  52
HETATM   52  N2  NDG A   1     -33.145  38.199  14.893  1.00 15.82    -0.349 N 
HETATM   53  H04 NDG A   1     -32.965  37.420  15.510  1.00 15.82     0.163 HD
HETATM   54  C7  NDG A   1     -33.215  38.004  13.577  1.00 18.26     0.214 C 
HETATM   55  O7  NDG A   1     -33.378  38.925  12.776  1.00 16.43    -0.274 OA
HETATM   56  C8  NDG A   1     -33.092  36.578  13.066  1.00 17.59     0.117 C 
ENDBRANCH   2  52
BRANCH   1  57
HETATM   57  O1  NDG A   1     -31.517  40.366  14.088  1.00 20.35    -0.369 OA
HETATM   58  H02 NDG A   1     -32.013  39.757  13.538  1.00 20.35     0.212 HD
ENDBRANCH   1  57
TORSDOF 20
ENDMDL
MODEL 7
REMARK VINA RESULT:      -6.6      2.217      7.389
REMARK  20 active torsions:
REMARK  status: ('A' for Active; 'I' for Inactive)
REMARK    1  A    between atoms: C1_1  and  O1_2 
REMARK    2  A    between atoms: C2_3  and  N2_4 
REMARK       I    between atoms: N2_4  and  C7_13 
REMARK    3  A    between atoms: C3_5  and  O3_6 
REMARK    4  A    between atoms: O3_6  and  C1_46 
REMARK    5  A    between atoms: C4_7  and  O4_8 
REMARK    6  A    between atoms: O4_8  and  C1_19 
REMARK    7  A    between atoms: C5_9  and  C6_11 
REMARK    8  A    between atoms: C6_11  and  O6_12 
REMARK    9  A    between atoms: C2_20  and  O2_21 
REMARK   10  A    between atoms: O2_21  and  C1_33 
REMARK   11  A    between atoms: C3_22  and  O3_23 
REMARK   12  A    between atoms: C4_24  and  O4_25 
REMARK   13  A    between atoms: C5_26  and  C6_28 
REMARK   14  A    between atoms: C6_28  and  O6_29 
REMARK   15  A    between atoms: C2_34  and  O2_35 
REMARK   16  A    between atoms: C3_36  and  O3_37 
REMARK   17  A    between atoms: C4_38  and  O4_39 
REMARK   18  A    between atoms: C2_47  and  O2_48 
REMARK   19  A    between atoms: C3_49  and  O3_50 
REMARK   20  A    between atoms: C4_51  and  O4_52 
ROOT
HETATM    1  C1  NDG A   1     -35.607  36.541  15.534  1.00 18.25     0.282 C 
HETATM    2  C2  NDG A   1     -36.600  37.522  16.192  1.00 16.10     0.171 C 
HETATM    3  C3  NDG A   1     -36.645  38.852  15.429  1.00 17.07     0.183 C 
HETATM    4  C4  NDG A   1     -35.222  39.406  15.319  1.00 17.51     0.187 C 
HETATM    5  C5  NDG A   1     -34.337  38.365  14.612  1.00 19.75     0.180 C 
HETATM    6  O5  NDG A   1     -34.313  37.144  15.380  1.00 18.16    -0.349 OA
ENDROOT
BRANCH   4   7
HETATM    7  O4  NDG A   1     -35.211  40.657  14.593  1.00 18.39    -0.348 OA
BRANCH   7   8
HETATM    8  C1  GAL A   2     -34.704  41.755  15.279  1.00 19.47     0.292 C 
HETATM    9  C2  GAL A   2     -35.657  42.954  15.141  1.00 21.38     0.211 C 
HETATM   10  C3  GAL A   2     -35.096  44.124  15.947  1.00 22.16     0.183 C 
HETATM   11  C4  GAL A   2     -34.953  43.697  17.408  1.00 22.05     0.180 C 
HETATM   12  C5  GAL A   2     -34.026  42.478  17.471  1.00 19.68     0.179 C 
HETATM   13  O5  GAL A   2     -34.568  41.401  16.673  1.00 18.57    -0.348 OA
BRANCH   9  14
HETATM   14  O2  GAL A   2     -35.795  43.334  13.761  1.00 23.81    -0.346 OA
BRANCH  14  15
HETATM   15  C1  FUC A   3     -34.699  44.028  13.226  1.00 20.96     0.292 C 
HETATM   16  C2  FUC A   3     -34.256  43.376  11.914  1.00 21.55     0.204 C 
HETATM   17  C3  FUC A   3     -35.319  43.597  10.837  1.00 21.68     0.183 C 
HETATM   18  C4  FUC A   3     -35.590  45.092  10.679  1.00 23.00     0.178 C 
HETATM   19  C5  FUC A   3     -36.010  45.675  12.028  1.00 22.59     0.152 C 
HETATM   20  C6  FUC A   3     -36.208  47.176  11.970  1.00 21.54     0.042 C 
HETATM   21  O5  FUC A   3     -34.983  45.412  13.016  1.00 22.06    -0.351 OA
BRANCH  16  22
HETATM   22  O2  FUC A   3     -34.052  41.985  12.109  1.00 21.73    -0.388 OA
HETATM   23  H02 FUC A   3     -33.444  41.653  11.445  1.00 21.73     0.210 HD
ENDBRANCH  16  22
BRANCH  17  24
HETATM   24  O3  FUC A   3     -34.873  43.053   9.602  1.00 23.03    -0.390 OA
HETATM   25  H04 FUC A   3     -35.141  42.134   9.542  1.00 23.03     0.210 HD
ENDBRANCH  17  24
BRANCH  18  26
HETATM   26  O4  FUC A   3     -34.408  45.747  10.228  1.00 24.32    -0.390 OA
HETATM   27  H06 FUC A   3     -33.729  45.683  10.903  1.00 24.32     0.210 HD
ENDBRANCH  18  26
ENDBRANCH  14  15
ENDBRANCH   9  14
BRANCH  10  28
HETATM   28  O3  GAL A   2     -35.950  45.256  15.845  1.00 21.48    -0.390 OA
HETATM   29  H03 GAL A   2     -35.625  45.956  16.417  1.00 21.48     0.210 HD
ENDBRANCH  10  28
BRANCH  11  30
HETATM   30  O4  GAL A   2     -36.234  43.354  17.924  1.00 21.68    -0.390 OA
HETATM   31  H05 GAL A   2     -36.130  42.904  18.766  1.00 21.68     0.210 HD
ENDBRANCH  11  30
BRANCH  12  32
HETATM   32  C6  GAL A   2     -33.815  41.944  18.879  1.00 22.77     0.198 C 
BRANCH  32  33
HETATM   33  O6  GAL A   2     -34.908  41.142  19.303  1.00 21.83    -0.398 OA
HETATM   34  H09 GAL A   2     -35.426  41.623  19.952  1.00 21.83     0.209 HD
ENDBRANCH  32  33
ENDBRANCH  12  32
ENDBRANCH   7   8
ENDBRANCH   4   7
BRANCH   5  35
HETATM   35  C6  NDG A   1     -32.903  38.818  14.459  1.00 19.44     0.198 C 
BRANCH  35  36
HETATM   36  O6  NDG A   1     -32.736  39.606  13.284  1.00 22.44    -0.398 OA
HETATM   37  H10 NDG A   1     -31.816  39.586  13.013  1.00 22.44     0.209 HD
ENDBRANCH  35  36
ENDBRANCH   5  35
BRANCH   3  38
HETATM   38  O3  NDG A   1     -37.469  39.780  16.157  1.00 16.70    -0.348 OA
BRANCH  38  39
HETATM   39  C1  FUC A   4     -38.840  39.730  15.872  1.00 17.98     0.292 C 
HETATM   40  C2  FUC A   4     -39.630  40.041  17.150  1.00 18.98     0.204 C 
HETATM   41  C3  FUC A   4     -39.313  41.475  17.596  1.00 18.80     0.183 C 
HETATM   42  C4  FUC A   4     -39.630  42.452  16.460  1.00 19.03     0.178 C 
HETATM   43  C5  FUC A   4     -38.891  42.040  15.176  1.00 17.92     0.152 C 
HETATM   44  O5  FUC A   4     -39.197  40.662  14.855  1.00 17.36    -0.351 OA
HETATM   45  C6  FUC A   4     -39.284  42.881  13.974  1.00 17.47     0.042 C 
BRANCH  40  46
HETATM   46  O2  FUC A   4     -39.276  39.118  18.174  1.00 18.96    -0.388 OA
HETATM   47  H02 FUC A   4     -39.520  39.478  19.029  1.00 18.96     0.210 HD
ENDBRANCH  40  46
BRANCH  41  48
HETATM   48  O3  FUC A   4     -40.089  41.806  18.742  1.00 18.98    -0.390 OA
HETATM   49  H04 FUC A   4     -39.946  41.149  19.427  1.00 18.98     0.210 HD
ENDBRANCH  41  48
BRANCH  42  50
HETATM   50  O4  FUC A   4     -41.031  42.450  16.226  1.00 17.97    -0.390 OA
HETATM   51  H06 FUC A   4     -41.488  42.746  17.017  1.00 17.97     0.210 HD
ENDBRANCH  42  50
ENDBRANCH  38  39
ENDBRANCH   3  38
BRANCH   2  52
HETATM   52  N2  NDG A   1     -37.925  36.935  16.263  1.00 15.82    -0.349 N 
HETATM   53  H04 NDG A   1     -38.535  36.963  15.459  1.00 15.82     0.163 HD
HETATM   54  C7  NDG A   1     -38.336  36.360  17.391  1.00 18.26     0.214 C 
HETATM   55  O7  NDG A   1     -37.656  36.347  18.418  1.00 16.43    -0.274 OA
HETATM   56  C8  NDG A   1     -39.702  35.694  17.388  1.00 17.59     0.117 C 
ENDBRANCH   2  52
BRANCH   1  57
HETATM   57  O1  NDG A   1     -36.061  36.149  14.287  1.00 20.35    -0.369 OA
HETATM   58  H02 NDG A   1     -35.690  35.292  14.066  1.00 20.35     0.212 HD
ENDBRANCH   1  57
TORSDOF 20
ENDMDL
MODEL 8
REMARK VINA RESULT:      -6.4      2.350      4.405
REMARK  20 active torsions:
REMARK  status: ('A' for Active; 'I' for Inactive)
REMARK    1  A    between atoms: C1_1  and  O1_2 
REMARK    2  A    between atoms: C2_3  and  N2_4 
REMARK       I    between atoms: N2_4  and  C7_13 
REMARK    3  A    between atoms: C3_5  and  O3_6 
REMARK    4  A    between atoms: O3_6  and  C1_46 
REMARK    5  A    between atoms: C4_7  and  O4_8 
REMARK    6  A    between atoms: O4_8  and  C1_19 
REMARK    7  A    between atoms: C5_9  and  C6_11 
REMARK    8  A    between atoms: C6_11  and  O6_12 
REMARK    9  A    between atoms: C2_20  and  O2_21 
REMARK   10  A    between atoms: O2_21  and  C1_33 
REMARK   11  A    between atoms: C3_22  and  O3_23 
REMARK   12  A    between atoms: C4_24  and  O4_25 
REMARK   13  A    between atoms: C5_26  and  C6_28 
REMARK   14  A    between atoms: C6_28  and  O6_29 
REMARK   15  A    between atoms: C2_34  and  O2_35 
REMARK   16  A    between atoms: C3_36  and  O3_37 
REMARK   17  A    between atoms: C4_38  and  O4_39 
REMARK   18  A    between atoms: C2_47  and  O2_48 
REMARK   19  A    between atoms: C3_49  and  O3_50 
REMARK   20  A    between atoms: C4_51  and  O4_52 
ROOT
HETATM    1  C1  NDG A   1     -37.010  43.704  14.703  1.00 18.25     0.282 C 
HETATM    2  C2  NDG A   1     -36.075  42.558  14.263  1.00 16.10     0.171 C 
HETATM    3  C3  NDG A   1     -36.868  41.269  14.014  1.00 17.07     0.183 C 
HETATM    4  C4  NDG A   1     -37.686  40.942  15.265  1.00 17.51     0.187 C 
HETATM    5  C5  NDG A   1     -38.607  42.133  15.581  1.00 19.75     0.180 C 
HETATM    6  O5  NDG A   1     -37.813  43.312  15.827  1.00 18.16    -0.349 OA
ENDROOT
BRANCH   4   7
HETATM    7  O4  NDG A   1     -38.464  39.737  15.073  1.00 18.39    -0.348 OA
BRANCH   7   8
HETATM    8  C1  GAL A   2     -38.905  39.106  16.232  1.00 19.47     0.292 C 
HETATM    9  C2  GAL A   2     -40.194  38.317  15.948  1.00 21.38     0.211 C 
HETATM   10  C3  GAL A   2     -40.621  37.596  17.226  1.00 22.16     0.183 C 
HETATM   11  C4  GAL A   2     -39.492  36.668  17.673  1.00 22.05     0.180 C 
HETATM   12  C5  GAL A   2     -38.230  37.509  17.898  1.00 19.68     0.179 C 
HETATM   13  O5  GAL A   2     -37.872  38.203  16.681  1.00 18.57    -0.348 OA
BRANCH   9  14
HETATM   14  O2  GAL A   2     -41.242  39.201  15.513  1.00 23.81    -0.346 OA
BRANCH  14  15
HETATM   15  C1  FUC A   3     -41.413  39.275  14.122  1.00 20.96     0.292 C 
HETATM   16  C2  FUC A   3     -42.752  38.649  13.725  1.00 21.55     0.204 C 
HETATM   17  C3  FUC A   3     -43.904  39.522  14.226  1.00 21.68     0.183 C 
HETATM   18  C4  FUC A   3     -43.746  40.944  13.690  1.00 23.00     0.178 C 
HETATM   19  C5  FUC A   3     -42.385  41.494  14.111  1.00 22.59     0.152 C 
HETATM   20  C6  FUC A   3     -42.118  42.870  13.536  1.00 21.54     0.042 C 
HETATM   21  O5  FUC A   3     -41.334  40.616  13.636  1.00 22.06    -0.351 OA
BRANCH  16  22
HETATM   22  O2  FUC A   3     -42.861  37.347  14.277  1.00 21.73    -0.388 OA
HETATM   23  H02 FUC A   3     -42.204  37.235  14.968  1.00 21.73     0.210 HD
ENDBRANCH  16  22
BRANCH  17  24
HETATM   24  O3  FUC A   3     -45.144  38.977  13.795  1.00 23.03    -0.390 OA
HETATM   25  H04 FUC A   3     -45.053  38.643  12.900  1.00 23.03     0.210 HD
ENDBRANCH  17  24
BRANCH  18  26
HETATM   26  O4  FUC A   3     -43.833  40.930  12.268  1.00 24.32    -0.390 OA
HETATM   27  H06 FUC A   3     -43.009  41.250  11.894  1.00 24.32     0.210 HD
ENDBRANCH  18  26
ENDBRANCH  14  15
ENDBRANCH   9  14
BRANCH  10  28
HETATM   28  O3  GAL A   2     -41.813  36.854  17.006  1.00 21.48    -0.390 OA
HETATM   29  H03 GAL A   2     -41.728  36.342  16.198  1.00 21.48     0.210 HD
ENDBRANCH  10  28
BRANCH  11  30
HETATM   30  O4  GAL A   2     -39.250  35.702  16.657  1.00 21.68    -0.390 OA
HETATM   31  H05 GAL A   2     -40.054  35.560  16.152  1.00 21.68     0.210 HD
ENDBRANCH  11  30
BRANCH  12  32
HETATM   32  C6  GAL A   2     -37.023  36.692  18.333  1.00 22.77     0.198 C 
BRANCH  32  33
HETATM   33  O6  GAL A   2     -36.474  35.954  17.252  1.00 21.83    -0.398 OA
HETATM   34  H09 GAL A   2     -37.090  35.266  16.988  1.00 21.83     0.209 HD
ENDBRANCH  32  33
ENDBRANCH  12  32
ENDBRANCH   7   8
ENDBRANCH   4   7
BRANCH   5  35
HETATM   35  C6  NDG A   1     -39.459  41.910  16.811  1.00 19.44     0.198 C 
BRANCH  35  36
HETATM   36  O6  NDG A   1     -40.602  42.758  16.804  1.00 22.44    -0.398 OA
HETATM   37  H10 NDG A   1     -40.648  43.241  17.632  1.00 22.44     0.209 HD
ENDBRANCH  35  36
ENDBRANCH   5  35
BRANCH   3  38
HETATM   38  O3  NDG A   1     -35.945  40.197  13.748  1.00 16.70    -0.348 OA
BRANCH  38  39
HETATM   39  C1  FUC A   4     -35.281  39.673  14.865  1.00 17.98     0.292 C 
HETATM   40  C2  FUC A   4     -35.089  38.163  14.672  1.00 18.98     0.204 C 
HETATM   41  C3  FUC A   4     -34.182  37.927  13.456  1.00 18.80     0.183 C 
HETATM   42  C4  FUC A   4     -32.854  38.667  13.649  1.00 19.03     0.178 C 
HETATM   43  C5  FUC A   4     -33.108  40.156  13.937  1.00 17.92     0.152 C 
HETATM   44  O5  FUC A   4     -34.012  40.292  15.058  1.00 17.36    -0.351 OA
HETATM   45  C6  FUC A   4     -31.837  40.912  14.288  1.00 17.47     0.042 C 
BRANCH  40  46
HETATM   46  O2  FUC A   4     -36.351  37.536  14.474  1.00 18.96    -0.388 OA
HETATM   47  H02 FUC A   4     -37.042  38.202  14.466  1.00 18.96     0.210 HD
ENDBRANCH  40  46
BRANCH  41  48
HETATM   48  O3  FUC A   4     -33.935  36.534  13.302  1.00 18.98    -0.390 OA
HETATM   49  H04 FUC A   4     -33.059  36.325  13.632  1.00 18.98     0.210 HD
ENDBRANCH  41  48
BRANCH  42  50
HETATM   50  O4  FUC A   4     -32.154  38.083  14.738  1.00 17.97    -0.390 OA
HETATM   51  H06 FUC A   4     -32.511  38.417  15.564  1.00 17.97     0.210 HD
ENDBRANCH  42  50
ENDBRANCH  38  39
ENDBRANCH   3  38
BRANCH   2  52
HETATM   52  N2  NDG A   1     -35.333  42.932  13.074  1.00 15.82    -0.349 N 
HETATM   53  H04 NDG A   1     -35.673  42.668  12.161  1.00 15.82     0.163 HD
HETATM   54  C7  NDG A   1     -34.202  43.626  13.189  1.00 18.26     0.214 C 
HETATM   55  O7  NDG A   1     -33.714  43.927  14.279  1.00 16.43    -0.274 OA
HETATM   56  C8  NDG A   1     -33.505  44.059  11.910  1.00 17.59     0.117 C 
ENDBRANCH   2  52
BRANCH   1  57
HETATM   57  O1  NDG A   1     -37.852  44.072  13.669  1.00 20.35    -0.369 OA
HETATM   58  H02 NDG A   1     -37.416  44.727  13.118  1.00 20.35     0.212 HD
ENDBRANCH   1  57
TORSDOF 20
ENDMDL
MODEL 9
REMARK VINA RESULT:      -6.4      1.241      4.338
REMARK  20 active torsions:
REMARK  status: ('A' for Active; 'I' for Inactive)
REMARK    1  A    between atoms: C1_1  and  O1_2 
REMARK    2  A    between atoms: C2_3  and  N2_4 
REMARK       I    between atoms: N2_4  and  C7_13 
REMARK    3  A    between atoms: C3_5  and  O3_6 
REMARK    4  A    between atoms: O3_6  and  C1_46 
REMARK    5  A    between atoms: C4_7  and  O4_8 
REMARK    6  A    between atoms: O4_8  and  C1_19 
REMARK    7  A    between atoms: C5_9  and  C6_11 
REMARK    8  A    between atoms: C6_11  and  O6_12 
REMARK    9  A    between atoms: C2_20  and  O2_21 
REMARK   10  A    between atoms: O2_21  and  C1_33 
REMARK   11  A    between atoms: C3_22  and  O3_23 
REMARK   12  A    between atoms: C4_24  and  O4_25 
REMARK   13  A    between atoms: C5_26  and  C6_28 
REMARK   14  A    between atoms: C6_28  and  O6_29 
REMARK   15  A    between atoms: C2_34  and  O2_35 
REMARK   16  A    between atoms: C3_36  and  O3_37 
REMARK   17  A    between atoms: C4_38  and  O4_39 
REMARK   18  A    between atoms: C2_47  and  O2_48 
REMARK   19  A    between atoms: C3_49  and  O3_50 
REMARK   20  A    between atoms: C4_51  and  O4_52 
ROOT
HETATM    1  C1  NDG A   1     -36.717  44.248  12.667  1.00 18.25     0.282 C 
HETATM    2  C2  NDG A   1     -35.847  43.006  12.952  1.00 16.10     0.171 C 
HETATM    3  C3  NDG A   1     -36.648  41.938  13.709  1.00 17.07     0.183 C 
HETATM    4  C4  NDG A   1     -37.243  42.568  14.970  1.00 17.51     0.187 C 
HETATM    5  C5  NDG A   1     -38.120  43.764  14.561  1.00 19.75     0.180 C 
HETATM    6  O5  NDG A   1     -37.317  44.746  13.874  1.00 18.16    -0.349 OA
ENDROOT
BRANCH   4   7
HETATM    7  O4  NDG A   1     -38.021  41.600  15.713  1.00 18.39    -0.348 OA
BRANCH   7   8
HETATM    8  C1  GAL A   2     -37.499  40.312  15.766  1.00 19.47     0.292 C 
HETATM    9  C2  GAL A   2     -37.188  39.926  17.221  1.00 21.38     0.211 C 
HETATM   10  C3  GAL A   2     -36.666  38.490  17.249  1.00 22.16     0.183 C 
HETATM   11  C4  GAL A   2     -37.725  37.566  16.646  1.00 22.05     0.180 C 
HETATM   12  C5  GAL A   2     -38.016  38.030  15.214  1.00 19.68     0.179 C 
HETATM   13  O5  GAL A   2     -38.477  39.400  15.220  1.00 18.57    -0.348 OA
BRANCH   9  14
HETATM   14  O2  GAL A   2     -36.204  40.813  17.781  1.00 23.81    -0.346 OA
BRANCH  14  15
HETATM   15  C1  FUC A   3     -36.320  41.028  19.163  1.00 20.96     0.292 C 
HETATM   16  C2  FUC A   3     -35.265  42.035  19.627  1.00 21.55     0.204 C 
HETATM   17  C3  FUC A   3     -35.589  43.422  19.070  1.00 21.68     0.183 C 
HETATM   18  C4  FUC A   3     -37.003  43.828  19.486  1.00 23.00     0.178 C 
HETATM   19  C5  FUC A   3     -37.994  42.770  19.004  1.00 22.59     0.152 C 
HETATM   20  C6  FUC A   3     -39.410  43.059  19.462  1.00 21.54     0.042 C 
HETATM   21  O5  FUC A   3     -37.625  41.474  19.537  1.00 22.06    -0.351 OA
BRANCH  16  22
HETATM   22  O2  FUC A   3     -33.979  41.629  19.184  1.00 21.73    -0.388 OA
HETATM   23  H02 FUC A   3     -33.595  41.028  19.826  1.00 21.73     0.210 HD
ENDBRANCH  16  22
BRANCH  17  24
HETATM   24  O3  FUC A   3     -34.651  44.369  19.559  1.00 23.03    -0.390 OA
HETATM   25  H04 FUC A   3     -34.070  43.946  20.195  1.00 23.03     0.210 HD
ENDBRANCH  17  24
BRANCH  18  26
HETATM   26  O4  FUC A   3     -37.071  43.931  20.905  1.00 24.32    -0.390 OA
HETATM   27  H06 FUC A   3     -37.397  43.106  21.270  1.00 24.32     0.210 HD
ENDBRANCH  18  26
ENDBRANCH  14  15
ENDBRANCH   9  14
BRANCH  10  28
HETATM   28  O3  GAL A   2     -36.365  38.094  18.580  1.00 21.48    -0.390 OA
HETATM   29  H03 GAL A   2     -36.982  37.413  18.860  1.00 21.48     0.210 HD
ENDBRANCH  10  28
BRANCH  11  30
HETATM   30  O4  GAL A   2     -38.911  37.640  17.426  1.00 21.68    -0.390 OA
HETATM   31  H05 GAL A   2     -38.824  38.341  18.077  1.00 21.68     0.210 HD
ENDBRANCH  11  30
BRANCH  12  32
HETATM   32  C6  GAL A   2     -39.072  37.194  14.506  1.00 22.77     0.198 C 
BRANCH  32  33
HETATM   33  O6  GAL A   2     -40.380  37.695  14.743  1.00 21.83    -0.398 OA
HETATM   34  H09 GAL A   2     -40.946  37.476  14.000  1.00 21.83     0.209 HD
ENDBRANCH  32  33
ENDBRANCH  12  32
ENDBRANCH   7   8
ENDBRANCH   4   7
BRANCH   5  35
HETATM   35  C6  NDG A   1     -38.753  44.462  15.743  1.00 19.44     0.198 C 
BRANCH  35  36
HETATM   36  O6  NDG A   1     -39.982  43.843  16.108  1.00 22.44    -0.398 OA
HETATM   37  H10 NDG A   1     -40.664  44.512  16.197  1.00 22.44     0.209 HD
ENDBRANCH  35  36
ENDBRANCH   5  35
BRANCH   3  38
HETATM   38  O3  NDG A   1     -35.762  40.865  14.077  1.00 16.70    -0.348 OA
BRANCH  38  39
HETATM   39  C1  FUC A   4     -34.394  41.121  13.917  1.00 17.98     0.292 C 
HETATM   40  C2  FUC A   4     -33.727  41.162  15.298  1.00 18.98     0.204 C 
HETATM   41  C3  FUC A   4     -33.854  39.781  15.955  1.00 18.80     0.183 C 
HETATM   42  C4  FUC A   4     -33.242  38.715  15.040  1.00 19.03     0.178 C 
HETATM   43  C5  FUC A   4     -33.877  38.781  13.641  1.00 17.92     0.152 C 
HETATM   44  O5  FUC A   4     -33.766  40.125  13.115  1.00 17.36    -0.351 OA
HETATM   45  C6  FUC A   4     -33.205  37.851  12.645  1.00 17.47     0.042 C 
BRANCH  40  46
HETATM   46  O2  FUC A   4     -34.351  42.151  16.108  1.00 18.96    -0.388 OA
HETATM   47  H02 FUC A   4     -34.666  41.749  16.920  1.00 18.96     0.210 HD
ENDBRANCH  40  46
BRANCH  41  48
HETATM   48  O3  FUC A   4     -33.180  39.779  17.208  1.00 18.98    -0.390 OA
HETATM   49  H04 FUC A   4     -32.275  40.077  17.086  1.00 18.98     0.210 HD
ENDBRANCH  41  48
BRANCH  42  50
HETATM   50  O4  FUC A   4     -31.843  38.938  14.941  1.00 17.97    -0.390 OA
HETATM   51  H06 FUC A   4     -31.385  38.095  14.910  1.00 17.97     0.210 HD
ENDBRANCH  42  50
ENDBRANCH  38  39
ENDBRANCH   3  38
BRANCH   2  52
HETATM   52  N2  NDG A   1     -35.318  42.459  11.717  1.00 15.82    -0.349 N 
HETATM   53  H04 NDG A   1     -35.646  41.567  11.377  1.00 15.82     0.163 HD
HETATM   54  C7  NDG A   1     -34.399  43.137  11.032  1.00 18.26     0.214 C 
HETATM   55  O7  NDG A   1     -33.924  44.202  11.428  1.00 16.43    -0.274 OA
HETATM   56  C8  NDG A   1     -33.935  42.556   9.706  1.00 17.59     0.117 C 
ENDBRANCH   2  52
BRANCH   1  57
HETATM   57  O1  NDG A   1     -37.724  43.944  11.768  1.00 20.35    -0.369 OA
HETATM   58  H02 NDG A   1     -38.407  43.437  12.212  1.00 20.35     0.212 HD
ENDBRANCH   1  57
TORSDOF 20
ENDMDL
MODEL 10
REMARK VINA RESULT:      -6.2      2.007      6.492
REMARK  20 active torsions:
REMARK  status: ('A' for Active; 'I' for Inactive)
REMARK    1  A    between atoms: C1_1  and  O1_2 
REMARK    2  A    between atoms: C2_3  and  N2_4 
REMARK       I    between atoms: N2_4  and  C7_13 
REMARK    3  A    between atoms: C3_5  and  O3_6 
REMARK    4  A    between atoms: O3_6  and  C1_46 
REMARK    5  A    between atoms: C4_7  and  O4_8 
REMARK    6  A    between atoms: O4_8  and  C1_19 
REMARK    7  A    between atoms: C5_9  and  C6_11 
REMARK    8  A    between atoms: C6_11  and  O6_12 
REMARK    9  A    between atoms: C2_20  and  O2_21 
REMARK   10  A    between atoms: O2_21  and  C1_33 
REMARK   11  A    between atoms: C3_22  and  O3_23 
REMARK   12  A    between atoms: C4_24  and  O4_25 
REMARK   13  A    between atoms: C5_26  and  C6_28 
REMARK   14  A    between atoms: C6_28  and  O6_29 
REMARK   15  A    between atoms: C2_34  and  O2_35 
REMARK   16  A    between atoms: C3_36  and  O3_37 
REMARK   17  A    between atoms: C4_38  and  O4_39 
REMARK   18  A    between atoms: C2_47  and  O2_48 
REMARK   19  A    between atoms: C3_49  and  O3_50 
REMARK   20  A    between atoms: C4_51  and  O4_52 
ROOT
HETATM    1  C1  NDG A   1     -31.659  40.537  15.005  1.00 18.25     0.282 C 
HETATM    2  C2  NDG A   1     -32.755  39.539  15.430  1.00 16.10     0.171 C 
HETATM    3  C3  NDG A   1     -34.150  40.074  15.082  1.00 17.07     0.183 C 
HETATM    4  C4  NDG A   1     -34.316  41.462  15.704  1.00 17.51     0.187 C 
HETATM    5  C5  NDG A   1     -33.198  42.379  15.177  1.00 19.75     0.180 C 
HETATM    6  O5  NDG A   1     -31.912  41.843  15.549  1.00 18.16    -0.349 OA
ENDROOT
BRANCH   4   7
HETATM    7  O4  NDG A   1     -35.615  42.016  15.391  1.00 18.39    -0.348 OA
BRANCH   7   8
HETATM    8  C1  GAL A   2     -36.119  42.939  16.302  1.00 19.47     0.292 C 
HETATM    9  C2  GAL A   2     -36.985  43.982  15.576  1.00 21.38     0.211 C 
HETATM   10  C3  GAL A   2     -37.563  44.948  16.609  1.00 22.16     0.183 C 
HETATM   11  C4  GAL A   2     -38.387  44.154  17.623  1.00 22.05     0.180 C 
HETATM   12  C5  GAL A   2     -37.476  43.109  18.279  1.00 19.68     0.179 C 
HETATM   13  O5  GAL A   2     -36.921  42.233  17.272  1.00 18.57    -0.348 OA
BRANCH   9  14
HETATM   14  O2  GAL A   2     -36.202  44.709  14.613  1.00 23.81    -0.346 OA
BRANCH  14  15
HETATM   15  C1  FUC A   3     -36.742  44.748  13.319  1.00 20.96     0.292 C 
HETATM   16  C2  FUC A   3     -36.410  46.084  12.652  1.00 21.55     0.204 C 
HETATM   17  C3  FUC A   3     -34.910  46.165  12.364  1.00 21.68     0.183 C 
HETATM   18  C4  FUC A   3     -34.483  44.969  11.513  1.00 23.00     0.178 C 
HETATM   19  C5  FUC A   3     -34.861  43.676  12.233  1.00 22.59     0.152 C 
HETATM   20  C6  FUC A   3     -34.552  42.445  11.404  1.00 21.54     0.042 C 
HETATM   21  O5  FUC A   3     -36.285  43.665  12.506  1.00 22.06    -0.351 OA
BRANCH  16  22
HETATM   22  O2  FUC A   3     -36.794  47.157  13.499  1.00 21.73    -0.388 OA
HETATM   23  H02 FUC A   3     -37.742  47.289  13.439  1.00 21.73     0.210 HD
ENDBRANCH  16  22
BRANCH  17  24
HETATM   24  O3  FUC A   3     -34.615  47.374  11.681  1.00 23.03    -0.390 OA
HETATM   25  H04 FUC A   3     -33.790  47.278  11.200  1.00 23.03     0.210 HD
ENDBRANCH  17  24
BRANCH  18  26
HETATM   26  O4  FUC A   3     -35.145  45.021  10.252  1.00 24.32    -0.390 OA
HETATM   27  H06 FUC A   3     -34.885  45.819   9.786  1.00 24.32     0.210 HD
ENDBRANCH  18  26
ENDBRANCH  14  15
ENDBRANCH   9  14
BRANCH  10  28
HETATM   28  O3  GAL A   2     -38.372  45.931  15.977  1.00 21.48    -0.390 OA
HETATM   29  H03 GAL A   2     -39.153  46.095  16.511  1.00 21.48     0.210 HD
ENDBRANCH  10  28
BRANCH  11  30
HETATM   30  O4  GAL A   2     -39.458  43.503  16.951  1.00 21.68    -0.390 OA
HETATM   31  H05 GAL A   2     -39.114  42.772  16.433  1.00 21.68     0.210 HD
ENDBRANCH  11  30
BRANCH  12  32
HETATM   32  C6  GAL A   2     -38.187  42.239  19.304  1.00 22.77     0.198 C 
BRANCH  32  33
HETATM   33  O6  GAL A   2     -39.348  42.877  19.816  1.00 21.83    -0.398 OA
HETATM   34  H09 GAL A   2     -39.486  42.608  20.727  1.00 21.83     0.209 HD
ENDBRANCH  32  33
ENDBRANCH  12  32
ENDBRANCH   7   8
ENDBRANCH   4   7
BRANCH   5  35
HETATM   35  C6  NDG A   1     -33.271  43.781  15.740  1.00 19.44     0.198 C 
BRANCH  35  36
HETATM   36  O6  NDG A   1     -33.517  43.759  17.142  1.00 22.44    -0.398 OA
HETATM   37  H10 NDG A   1     -32.899  44.344  17.585  1.00 22.44     0.209 HD
ENDBRANCH  35  36
ENDBRANCH   5  35
BRANCH   3  38
HETATM   38  O3  NDG A   1     -35.141  39.182  15.624  1.00 16.70    -0.348 OA
BRANCH  38  39
HETATM   39  C1  FUC A   4     -36.009  38.597  14.691  1.00 17.98     0.292 C 
HETATM   40  C2  FUC A   4     -36.294  37.149  15.112  1.00 18.98     0.204 C 
HETATM   41  C3  FUC A   4     -37.022  37.156  16.463  1.00 18.80     0.183 C 
HETATM   42  C4  FUC A   4     -38.297  37.999  16.360  1.00 19.03     0.178 C 
HETATM   43  C5  FUC A   4     -37.968  39.409  15.841  1.00 17.92     0.152 C 
HETATM   44  O5  FUC A   4     -37.236  39.315  14.596  1.00 17.36    -0.351 OA
HETATM   45  C6  FUC A   4     -39.209  40.242  15.572  1.00 17.47     0.042 C 
BRANCH  40  46
HETATM   46  O2  FUC A   4     -35.074  36.425  15.214  1.00 18.96    -0.388 OA
HETATM   47  H02 FUC A   4     -34.380  37.009  15.528  1.00 18.96     0.210 HD
ENDBRANCH  40  46
BRANCH  41  48
HETATM   48  O3  FUC A   4     -37.358  35.825  16.837  1.00 18.98    -0.390 OA
HETATM   49  H04 FUC A   4     -36.795  35.545  17.563  1.00 18.98     0.210 HD
ENDBRANCH  41  48
BRANCH  42  50
HETATM   50  O4  FUC A   4     -39.201  37.362  15.469  1.00 17.97    -0.390 OA
HETATM   51  H06 FUC A   4     -39.408  36.483  15.796  1.00 17.97     0.210 HD
ENDBRANCH  42  50
ENDBRANCH  38  39
ENDBRANCH   3  38
BRANCH   2  52
HETATM   52  N2  NDG A   1     -32.539  38.247  14.805  1.00 15.82    -0.349 N 
HETATM   53  H04 NDG A   1     -32.146  37.486  15.339  1.00 15.82     0.163 HD
HETATM   54  C7  NDG A   1     -32.862  38.068  13.526  1.00 18.26     0.214 C 
HETATM   55  O7  NDG A   1     -33.292  38.976  12.814  1.00 16.43    -0.274 OA
HETATM   56  C8  NDG A   1     -32.687  36.676  12.942  1.00 17.59     0.117 C 
ENDBRANCH   2  52
BRANCH   1  57
HETATM   57  O1  NDG A   1     -31.599  40.640  13.626  1.00 20.35    -0.369 OA
HETATM   58  H02 NDG A   1     -32.380  41.096  13.305  1.00 20.35     0.212 HD
ENDBRANCH   1  57
TORSDOF 20
ENDMDL
