REMARK  20 active torsions:
REMARK  status: ('A' for Active; 'I' for Inactive)
REMARK    1  A    between atoms: O1_2  and  C1_3 
REMARK    2  A    between atoms: C2_4  and  N2_5 
REMARK       I    between atoms: N2_5  and  C2N_7 
REMARK    3  A    between atoms: C3_10  and  O3_18 
REMARK    4  A    between atoms: C4_11  and  O4_17 
REMARK    5  A    between atoms: C5_12  and  C6_13 
REMARK    6  A    between atoms: C6_13  and  O6_14 
REMARK    7  A    between atoms: O4_17  and  C1_19 
REMARK    8  A    between atoms: O3_18  and  C1_46 
REMARK    9  A    between atoms: C5_21  and  C6_22 
REMARK   10  A    between atoms: C6_22  and  O6_23 
REMARK   11  A    between atoms: C4_25  and  O4_26 
REMARK   12  A    between atoms: C3_28  and  O3_29 
REMARK   13  A    between atoms: C2_31  and  O2_32 
REMARK   14  A    between atoms: O2_32  and  C1_33 
REMARK   15  A    between atoms: C4_37  and  O4_38 
REMARK   16  A    between atoms: C3_40  and  O3_41 
REMARK   17  A    between atoms: C2_43  and  O2_44 
REMARK   18  A    between atoms: C4_50  and  O4_51 
REMARK   19  A    between atoms: C3_53  and  O3_54 
REMARK   20  A    between atoms: C2_56  and  O2_57 
ROOT
HETATM    1  C1  WYA     2       7.573   9.249  -2.445  1.00  0.00     0.282 C 
HETATM    2  C2  WYA     2       7.736  10.171  -3.676  1.00  0.00     0.171 C 
HETATM    3  C3  WYA     2       7.630   9.392  -5.001  1.00  0.00     0.183 C 
HETATM    4  C4  WYA     2       8.688   8.279  -5.001  1.00  0.00     0.187 C 
HETATM    5  C5  WYA     2       8.493   7.315  -3.815  1.00  0.00     0.180 C 
HETATM    6  O5  WYA     2       8.508   8.103  -2.556  1.00  0.00    -0.349 OA
ENDROOT
BRANCH   4   7
HETATM    7  O4  WYA     2       8.591   7.533  -6.269  1.00  0.00    -0.348 OA
BRANCH   7   8
HETATM    8  C1  2LB     3       9.844   7.453  -7.034  1.00  0.00     0.292 C 
HETATM    9  O5  2LB     3      10.291   8.799  -7.454  1.00  0.00    -0.348 OA
HETATM   10  C5  2LB     3      11.548   8.855  -8.234  1.00  0.00     0.179 C 
HETATM   11  C4  2LB     3      11.351   8.039  -9.530  1.00  0.00     0.180 C 
HETATM   12  C3  2LB     3      10.869   6.611  -9.190  1.00  0.00     0.183 C 
HETATM   13  C2  2LB     3       9.615   6.603  -8.297  1.00  0.00     0.211 C 
BRANCH  10  14
HETATM   14  C6  2LB     3      11.941  10.327  -8.432  1.00  0.00     0.198 C 
BRANCH  14  15
HETATM   15  O6  2LB     3      12.108  10.943  -7.147  1.00  0.00    -0.398 OA
HETATM   16  H6O 2LB     3      11.282  10.897  -6.661  1.00  0.00     0.209 HD
ENDBRANCH  14  15
ENDBRANCH  10  14
BRANCH  11  17
HETATM   17  O4  2LB     3      10.359   8.704 -10.343  1.00  0.00    -0.390 OA
HETATM   18  H4O 2LB     3      10.223   8.206 -11.152  1.00  0.00     0.210 HD
ENDBRANCH  11  17
BRANCH  12  19
HETATM   19  O3  2LB     3      10.601   5.888 -10.405  1.00  0.00    -0.390 OA
HETATM   20  H3O 2LB     3      10.312   4.998 -10.190  1.00  0.00     0.210 HD
ENDBRANCH  12  19
BRANCH  13  21
HETATM   21  O2  2LB     3       9.319   5.216  -7.886  1.00  0.00    -0.346 OA
BRANCH  21  22
HETATM   22  C1  0fA     4       8.040   4.675  -8.396  1.00  0.00     0.292 C 
HETATM   23  O5  0fA     4       6.882   5.287  -7.704  1.00  0.00    -0.351 OA
HETATM   24  C5  0fA     4       6.685   4.939  -6.276  1.00  0.00     0.152 C 
HETATM   25  C6  0fA     4       5.533   5.788  -5.734  1.00  0.00     0.042 C 
HETATM   26  C4  0fA     4       6.529   3.412  -6.143  1.00  0.00     0.178 C 
HETATM   27  C3  0fA     4       7.744   2.703  -6.780  1.00  0.00     0.183 C 
HETATM   28  C2  0fA     4       7.975   3.140  -8.240  1.00  0.00     0.204 C 
BRANCH  26  29
HETATM   29  O4  0fA     4       5.317   3.014  -6.819  1.00  0.00    -0.390 OA
HETATM   30  H4O 0fA     4       5.198   2.066  -6.730  1.00  0.00     0.210 HD
ENDBRANCH  26  29
BRANCH  27  31
HETATM   31  O3  0fA     4       7.542   1.279  -6.721  1.00  0.00    -0.390 OA
HETATM   32  H3O 0fA     4       8.303   0.832  -7.099  1.00  0.00     0.210 HD
ENDBRANCH  27  31
BRANCH  28  33
HETATM   33  O2  0fA     4       9.208   2.572  -8.717  1.00  0.00    -0.388 OA
HETATM   34  H2O 0fA     4       9.148   1.614  -8.695  1.00  0.00     0.210 HD
ENDBRANCH  28  33
ENDBRANCH  21  22
ENDBRANCH  13  21
ENDBRANCH   7   8
ENDBRANCH   4   7
BRANCH   3  35
HETATM   35  O3  WYA     2       7.913  10.282  -6.145  1.00  0.00    -0.348 OA
BRANCH  35  36
HETATM   36  C1  0fA     5       6.756  10.838  -6.884  1.00  0.00     0.292 C 
HETATM   37  O5  0fA     5       5.984   9.784  -7.589  1.00  0.00    -0.351 OA
HETATM   38  C5  0fA     5       6.668   9.076  -8.698  1.00  0.00     0.152 C 
HETATM   39  C6  0fA     5       5.745   7.967  -9.209  1.00  0.00     0.042 C 
HETATM   40  C4  0fA     5       7.154  10.091  -9.753  1.00  0.00     0.178 C 
HETATM   41  C3  0fA     5       7.996  11.198  -9.085  1.00  0.00     0.183 C 
HETATM   42  C2  0fA     5       7.242  11.872  -7.921  1.00  0.00     0.204 C 
BRANCH  40  43
HETATM   43  O4  0fA     5       6.001  10.677 -10.393  1.00  0.00    -0.390 OA
HETATM   44  H4O 0fA     5       6.291  11.265 -11.094  1.00  0.00     0.210 HD
ENDBRANCH  40  43
BRANCH  41  45
HETATM   45  O3  0fA     5       8.364  12.176 -10.075  1.00  0.00    -0.390 OA
HETATM   46  H3O 0fA     5       8.923  12.844  -9.671  1.00  0.00     0.210 HD
ENDBRANCH  41  45
BRANCH  42  47
HETATM   47  O2  0fA     5       8.115  12.809  -7.266  1.00  0.00    -0.388 OA
HETATM   48  H2O 0fA     5       8.368  13.497  -7.886  1.00  0.00     0.210 HD
ENDBRANCH  42  47
ENDBRANCH  35  36
ENDBRANCH   3  35
BRANCH   5  49
HETATM   49  C6  WYA     2       9.531   6.189  -3.697  1.00  0.00     0.198 C 
BRANCH  49  50
HETATM   50  O6  WYA     2      10.845   6.744  -3.539  1.00  0.00    -0.398 OA
HETATM   51  H6O WYA     2      11.487   6.033  -3.473  1.00  0.00     0.209 HD
ENDBRANCH  49  50
ENDBRANCH   5  49
BRANCH   2  52
HETATM   52  N2  WYA     2       6.776  11.282  -3.632  1.00  0.00    -0.349 N 
HETATM   53  H2N WYA     2       5.811  11.029  -3.480  1.00  0.00     0.163 HD
HETATM   54  C2N WYA     2       7.088  12.582  -3.799  1.00  0.00     0.214 C 
HETATM   55  CME WYA     2       5.902  13.563  -3.719  1.00  0.00     0.117 C 
HETATM   56  O2N WYA     2       8.229  12.994  -4.015  1.00  0.00    -0.274 OA
ENDBRANCH   2  52
BRANCH   1  57
HETATM   57  O1  ROH     1       6.211   8.805  -2.310  1.00  0.00    -0.369 OA
HETATM   58  HO1 ROH     1       6.133   8.251  -1.530  1.00  0.00     0.212 HD
ENDBRANCH   1  57
TORSDOF 20
